data_MIL-53(Al)
_audit_creation_date              2022-07-29
_audit_creation_method            'Materials Studio'
_symmetry_space_group_name_H-M    'P1'
_symmetry_Int_Tables_number       1
_symmetry_cell_setting            triclinic
loop_
_symmetry_equiv_pos_as_xyz
  x,y,z
_cell_length_a                    13.6838
_cell_length_b                    24.1754
_cell_length_c                    28.4140
_cell_angle_alpha                 90.0000
_cell_angle_beta                  122.5470
_cell_angle_gamma                 90.0000
loop_
_atom_site_label
_atom_site_type_symbol
_atom_site_fract_x
_atom_site_fract_y
_atom_site_fract_z
_atom_site_U_iso_or_equiv
_atom_site_adp_type
_atom_site_occupancy
O1     O     0.09006   0.25865   0.47007   0.00000  Uiso   1.00
O2     O     0.12352   0.20007   0.05795   0.00000  Uiso   1.00
O3     O     0.26922   0.18438   0.04219   0.00000  Uiso   1.00
O4     O     0.22530   0.04665   0.18983   0.00000  Uiso   1.00
O5     O     0.39138   0.05667   0.19971   0.00000  Uiso   1.00
C6     C     0.21488   0.17349   0.06691   0.00000  Uiso   1.00
C7     C     0.27722   0.13248   0.11101   0.00000  Uiso   1.00
C8     C     0.22789   0.11396   0.13690   0.00000  Uiso   1.00
C9     C     0.28934   0.07049   0.18020   0.00000  Uiso   1.00
H10    H     0.36484   0.11608   0.12153   0.05066  Uiso   1.00
H11    H     0.13886   0.12893   0.12581   0.05066  Uiso   1.00
H12    H     0.03852   0.23721   0.43467   0.05066  Uiso   1.00
O13    O     0.40994   0.00865   0.27993   0.00000  Uiso   1.00
O14    O     0.37648   0.45007   0.19205   0.00000  Uiso   1.00
O15    O     0.23078   0.43438   0.20781   0.00000  Uiso   1.00
O16    O     0.27470   0.29665   0.06017   0.00000  Uiso   1.00
O17    O     0.10862   0.30667   0.05029   0.00000  Uiso   1.00
C18    C     0.28512   0.42349   0.18309   0.00000  Uiso   1.00
C19    C     0.22278   0.38248   0.13899   0.00000  Uiso   1.00
C20    C     0.27211   0.36396   0.11310   0.00000  Uiso   1.00
C21    C     0.21066   0.32049   0.06980   0.00000  Uiso   1.00
H22    H     0.13516   0.36608   0.12847   0.05066  Uiso   1.00
H23    H     0.36114   0.37893   0.12419   0.05066  Uiso   1.00
H24    H     0.46148   0.48721   0.31533   0.05066  Uiso   1.00
O25    O     0.40994   0.24135   0.02993   0.00000  Uiso   1.00
O26    O     0.37648   0.29993   0.44205   0.00000  Uiso   1.00
O27    O     0.23078   0.31562   0.45781   0.00000  Uiso   1.00
O28    O     0.27470   0.45335   0.31017   0.00000  Uiso   1.00
O29    O     0.10862   0.44333   0.30029   0.00000  Uiso   1.00
C30    C     0.28512   0.32651   0.43309   0.00000  Uiso   1.00
C31    C     0.22278   0.36752   0.38899   0.00000  Uiso   1.00
C32    C     0.27211   0.38604   0.36310   0.00000  Uiso   1.00
C33    C     0.21066   0.42951   0.31980   0.00000  Uiso   1.00
H34    H     0.13516   0.38392   0.37847   0.05066  Uiso   1.00
H35    H     0.36114   0.37107   0.37419   0.05066  Uiso   1.00
H36    H     0.46148   0.26279   0.06533   0.05066  Uiso   1.00
O37    O     0.09006   0.49134   0.22007   0.00000  Uiso   1.00
O38    O     0.12352   0.04993   0.30795   0.00000  Uiso   1.00
O39    O     0.26922   0.06562   0.29219   0.00000  Uiso   1.00
O40    O     0.22530   0.20335   0.43983   0.00000  Uiso   1.00
O41    O     0.39138   0.19333   0.44971   0.00000  Uiso   1.00
C42    C     0.21488   0.07651   0.31691   0.00000  Uiso   1.00
C43    C     0.27722   0.11752   0.36101   0.00000  Uiso   1.00
C44    C     0.22789   0.13604   0.38690   0.00000  Uiso   1.00
C45    C     0.28934   0.17951   0.43020   0.00000  Uiso   1.00
H46    H     0.36484   0.13392   0.37153   0.05066  Uiso   1.00
H47    H     0.13886   0.12107   0.37581   0.05066  Uiso   1.00
H48    H     0.03852   0.01279   0.18467   0.05066  Uiso   1.00
Al49   Al    0.25000   0.25000  -0.00000   0.00000  Uiso   1.00
Al50   Al    0.25000   0.00000   0.25000   0.00000  Uiso   1.00
Al51   Al    0.00000   0.25000   0.00000   0.00000  Uiso   1.00
Al52   Al    0.00000   0.00000   0.25000   0.00000  Uiso   1.00
O53    O     0.59006   0.25865   0.47007   0.00000  Uiso   1.00
O54    O     0.62352   0.20007   0.05795   0.00000  Uiso   1.00
O55    O     0.76922   0.18438   0.04219   0.00000  Uiso   1.00
O56    O     0.72530   0.04665   0.18983   0.00000  Uiso   1.00
O57    O     0.89138   0.05667   0.19971   0.00000  Uiso   1.00
C58    C     0.71488   0.17349   0.06691   0.00000  Uiso   1.00
C59    C     0.77722   0.13248   0.11101   0.00000  Uiso   1.00
C60    C     0.72789   0.11396   0.13690   0.00000  Uiso   1.00
C61    C     0.78934   0.07049   0.18020   0.00000  Uiso   1.00
H62    H     0.86484   0.11608   0.12153   0.05066  Uiso   1.00
H63    H     0.63886   0.12893   0.12581   0.05066  Uiso   1.00
H64    H     0.53852   0.23721   0.43467   0.05066  Uiso   1.00
O65    O     0.90994   0.00865   0.27993   0.00000  Uiso   1.00
O66    O     0.87648   0.45007   0.19205   0.00000  Uiso   1.00
O67    O     0.73078   0.43438   0.20781   0.00000  Uiso   1.00
O68    O     0.77470   0.29665   0.06017   0.00000  Uiso   1.00
O69    O     0.60862   0.30667   0.05029   0.00000  Uiso   1.00
C70    C     0.78512   0.42349   0.18309   0.00000  Uiso   1.00
C71    C     0.72278   0.38248   0.13899   0.00000  Uiso   1.00
C72    C     0.77211   0.36396   0.11310   0.00000  Uiso   1.00
C73    C     0.71066   0.32049   0.06980   0.00000  Uiso   1.00
H74    H     0.63516   0.36608   0.12847   0.05066  Uiso   1.00
H75    H     0.86114   0.37893   0.12419   0.05066  Uiso   1.00
H76    H     0.96147   0.48721   0.31533   0.05066  Uiso   1.00
O77    O     0.90994   0.24135   0.02993   0.00000  Uiso   1.00
O78    O     0.87648   0.29993   0.44205   0.00000  Uiso   1.00
O79    O     0.73078   0.31562   0.45781   0.00000  Uiso   1.00
O80    O     0.77470   0.45335   0.31017   0.00000  Uiso   1.00
O81    O     0.60862   0.44333   0.30029   0.00000  Uiso   1.00
C82    C     0.78512   0.32651   0.43309   0.00000  Uiso   1.00
C83    C     0.72278   0.36752   0.38899   0.00000  Uiso   1.00
C84    C     0.77211   0.38604   0.36310   0.00000  Uiso   1.00
C85    C     0.71066   0.42951   0.31980   0.00000  Uiso   1.00
H86    H     0.63516   0.38392   0.37847   0.05066  Uiso   1.00
H87    H     0.86114   0.37107   0.37419   0.05066  Uiso   1.00
H88    H     0.96147   0.26279   0.06533   0.05066  Uiso   1.00
O89    O     0.59006   0.49134   0.22007   0.00000  Uiso   1.00
O90    O     0.62352   0.04993   0.30795   0.00000  Uiso   1.00
O91    O     0.76922   0.06562   0.29219   0.00000  Uiso   1.00
O92    O     0.72530   0.20335   0.43983   0.00000  Uiso   1.00
O93    O     0.89138   0.19333   0.44971   0.00000  Uiso   1.00
C94    C     0.71488   0.07651   0.31691   0.00000  Uiso   1.00
C95    C     0.77722   0.11752   0.36101   0.00000  Uiso   1.00
C96    C     0.72789   0.13604   0.38690   0.00000  Uiso   1.00
C97    C     0.78934   0.17951   0.43020   0.00000  Uiso   1.00
H98    H     0.86484   0.13392   0.37153   0.05066  Uiso   1.00
H99    H     0.63886   0.12107   0.37581   0.05066  Uiso   1.00
H100   H     0.53852   0.01279   0.18467   0.05066  Uiso   1.00
Al101  Al    0.75000   0.25000  -0.00000   0.00000  Uiso   1.00
Al102  Al    0.75000   0.00000   0.25000   0.00000  Uiso   1.00
Al103  Al    0.50000   0.25000  -0.00000   0.00000  Uiso   1.00
Al104  Al    0.50000   0.00000   0.25000   0.00000  Uiso   1.00
O105   O     0.09006   0.75865   0.47007   0.00000  Uiso   1.00
O106   O     0.12352   0.70008   0.05795   0.00000  Uiso   1.00
O107   O     0.26922   0.68438   0.04219   0.00000  Uiso   1.00
O108   O     0.22530   0.54665   0.18983   0.00000  Uiso   1.00
O109   O     0.39138   0.55667   0.19971   0.00000  Uiso   1.00
C110   C     0.21488   0.67349   0.06691   0.00000  Uiso   1.00
C111   C     0.27722   0.63248   0.11101   0.00000  Uiso   1.00
C112   C     0.22789   0.61396   0.13690   0.00000  Uiso   1.00
C113   C     0.28934   0.57049   0.18020   0.00000  Uiso   1.00
H114   H     0.36484   0.61608   0.12153   0.05066  Uiso   1.00
H115   H     0.13886   0.62894   0.12581   0.05066  Uiso   1.00
H116   H     0.03852   0.73721   0.43467   0.05066  Uiso   1.00
O117   O     0.40994   0.50865   0.27993   0.00000  Uiso   1.00
O118   O     0.37648   0.95007   0.19205   0.00000  Uiso   1.00
O119   O     0.23078   0.93438   0.20781   0.00000  Uiso   1.00
O120   O     0.27470   0.79665   0.06017   0.00000  Uiso   1.00
O121   O     0.10862   0.80667   0.05029   0.00000  Uiso   1.00
C122   C     0.28512   0.92349   0.18309   0.00000  Uiso   1.00
C123   C     0.22278   0.88248   0.13899   0.00000  Uiso   1.00
C124   C     0.27211   0.86396   0.11310   0.00000  Uiso   1.00
C125   C     0.21066   0.82049   0.06980   0.00000  Uiso   1.00
H126   H     0.13516   0.86608   0.12847   0.05066  Uiso   1.00
H127   H     0.36114   0.87893   0.12419   0.05066  Uiso   1.00
H128   H     0.46148   0.98721   0.31533   0.05066  Uiso   1.00
O129   O     0.40994   0.74135   0.02993   0.00000  Uiso   1.00
O130   O     0.37648   0.79993   0.44205   0.00000  Uiso   1.00
O131   O     0.23078   0.81562   0.45781   0.00000  Uiso   1.00
O132   O     0.27470   0.95335   0.31017   0.00000  Uiso   1.00
O133   O     0.10862   0.94333   0.30029   0.00000  Uiso   1.00
C134   C     0.28512   0.82651   0.43309   0.00000  Uiso   1.00
C135   C     0.22278   0.86752   0.38899   0.00000  Uiso   1.00
C136   C     0.27211   0.88604   0.36310   0.00000  Uiso   1.00
C137   C     0.21066   0.92951   0.31980   0.00000  Uiso   1.00
H138   H     0.13516   0.88392   0.37847   0.05066  Uiso   1.00
H139   H     0.36114   0.87107   0.37419   0.05066  Uiso   1.00
H140   H     0.46148   0.76279   0.06533   0.05066  Uiso   1.00
O141   O     0.09006   0.99135   0.22007   0.00000  Uiso   1.00
O142   O     0.12352   0.54993   0.30795   0.00000  Uiso   1.00
O143   O     0.26922   0.56562   0.29219   0.00000  Uiso   1.00
O144   O     0.22530   0.70335   0.43983   0.00000  Uiso   1.00
O145   O     0.39138   0.69333   0.44971   0.00000  Uiso   1.00
C146   C     0.21488   0.57651   0.31691   0.00000  Uiso   1.00
C147   C     0.27722   0.61752   0.36101   0.00000  Uiso   1.00
C148   C     0.22789   0.63604   0.38690   0.00000  Uiso   1.00
C149   C     0.28934   0.67951   0.43020   0.00000  Uiso   1.00
H150   H     0.36484   0.63392   0.37153   0.05066  Uiso   1.00
H151   H     0.13886   0.62107   0.37581   0.05066  Uiso   1.00
H152   H     0.03852   0.51279   0.18467   0.05066  Uiso   1.00
Al153  Al    0.25000   0.75000  -0.00000   0.00000  Uiso   1.00
Al154  Al    0.25000   0.50000   0.25000   0.00000  Uiso   1.00
Al155  Al    0.00000   0.75000   0.00000   0.00000  Uiso   1.00
Al156  Al    0.00000   0.50000   0.25000   0.00000  Uiso   1.00
O157   O     0.59006   0.75865   0.47007   0.00000  Uiso   1.00
O158   O     0.62352   0.70008   0.05795   0.00000  Uiso   1.00
O159   O     0.76922   0.68438   0.04219   0.00000  Uiso   1.00
O160   O     0.72530   0.54665   0.18983   0.00000  Uiso   1.00
O161   O     0.89138   0.55667   0.19971   0.00000  Uiso   1.00
C162   C     0.71488   0.67349   0.06691   0.00000  Uiso   1.00
C163   C     0.77722   0.63248   0.11101   0.00000  Uiso   1.00
C164   C     0.72789   0.61396   0.13690   0.00000  Uiso   1.00
C165   C     0.78934   0.57049   0.18020   0.00000  Uiso   1.00
H166   H     0.86484   0.61608   0.12153   0.05066  Uiso   1.00
H167   H     0.63886   0.62894   0.12581   0.05066  Uiso   1.00
H168   H     0.53852   0.73721   0.43467   0.05066  Uiso   1.00
O169   O     0.90994   0.50865   0.27993   0.00000  Uiso   1.00
O170   O     0.87648   0.95007   0.19205   0.00000  Uiso   1.00
O171   O     0.73078   0.93438   0.20781   0.00000  Uiso   1.00
O172   O     0.77470   0.79665   0.06017   0.00000  Uiso   1.00
O173   O     0.60862   0.80667   0.05029   0.00000  Uiso   1.00
C174   C     0.78512   0.92349   0.18309   0.00000  Uiso   1.00
C175   C     0.72278   0.88248   0.13899   0.00000  Uiso   1.00
C176   C     0.77211   0.86396   0.11310   0.00000  Uiso   1.00
C177   C     0.71066   0.82049   0.06980   0.00000  Uiso   1.00
H178   H     0.63516   0.86608   0.12847   0.05066  Uiso   1.00
H179   H     0.86114   0.87893   0.12419   0.05066  Uiso   1.00
H180   H     0.96147   0.98721   0.31533   0.05066  Uiso   1.00
O181   O     0.90994   0.74135   0.02993   0.00000  Uiso   1.00
O182   O     0.87648   0.79993   0.44205   0.00000  Uiso   1.00
O183   O     0.73078   0.81562   0.45781   0.00000  Uiso   1.00
O184   O     0.77470   0.95335   0.31017   0.00000  Uiso   1.00
O185   O     0.60862   0.94333   0.30029   0.00000  Uiso   1.00
C186   C     0.78512   0.82651   0.43309   0.00000  Uiso   1.00
C187   C     0.72278   0.86752   0.38899   0.00000  Uiso   1.00
C188   C     0.77211   0.88604   0.36310   0.00000  Uiso   1.00
C189   C     0.71066   0.92951   0.31980   0.00000  Uiso   1.00
H190   H     0.63516   0.88392   0.37847   0.05066  Uiso   1.00
H191   H     0.86114   0.87107   0.37419   0.05066  Uiso   1.00
H192   H     0.96147   0.76279   0.06533   0.05066  Uiso   1.00
O193   O     0.59006   0.99135   0.22007   0.00000  Uiso   1.00
O194   O     0.62352   0.54993   0.30795   0.00000  Uiso   1.00
O195   O     0.76922   0.56562   0.29219   0.00000  Uiso   1.00
O196   O     0.72530   0.70335   0.43983   0.00000  Uiso   1.00
O197   O     0.89138   0.69333   0.44971   0.00000  Uiso   1.00
C198   C     0.71488   0.57651   0.31691   0.00000  Uiso   1.00
C199   C     0.77722   0.61752   0.36101   0.00000  Uiso   1.00
C200   C     0.72789   0.63604   0.38690   0.00000  Uiso   1.00
C201   C     0.78934   0.67951   0.43020   0.00000  Uiso   1.00
H202   H     0.86484   0.63392   0.37153   0.05066  Uiso   1.00
H203   H     0.63886   0.62107   0.37581   0.05066  Uiso   1.00
H204   H     0.53852   0.51279   0.18467   0.05066  Uiso   1.00
Al205  Al    0.75000   0.75000  -0.00000   0.00000  Uiso   1.00
Al206  Al    0.75000   0.50000   0.25000   0.00000  Uiso   1.00
Al207  Al    0.50000   0.75000  -0.00000   0.00000  Uiso   1.00
Al208  Al    0.50000   0.50000   0.25000   0.00000  Uiso   1.00
O209   O     0.09006   0.25865   0.97007   0.00000  Uiso   1.00
O210   O     0.12352   0.20007   0.55795   0.00000  Uiso   1.00
O211   O     0.26922   0.18438   0.54219   0.00000  Uiso   1.00
O212   O     0.22530   0.04665   0.68983   0.00000  Uiso   1.00
O213   O     0.39138   0.05667   0.69971   0.00000  Uiso   1.00
C214   C     0.21488   0.17349   0.56691   0.00000  Uiso   1.00
C215   C     0.27722   0.13248   0.61101   0.00000  Uiso   1.00
C216   C     0.22789   0.11396   0.63690   0.00000  Uiso   1.00
C217   C     0.28934   0.07049   0.68020   0.00000  Uiso   1.00
H218   H     0.36484   0.11608   0.62153   0.05066  Uiso   1.00
H219   H     0.13886   0.12893   0.62581   0.05066  Uiso   1.00
H220   H     0.03852   0.23721   0.93467   0.05066  Uiso   1.00
O221   O     0.40994   0.00865   0.77993   0.00000  Uiso   1.00
O222   O     0.37648   0.45007   0.69205   0.00000  Uiso   1.00
O223   O     0.23078   0.43438   0.70781   0.00000  Uiso   1.00
O224   O     0.27470   0.29665   0.56017   0.00000  Uiso   1.00
O225   O     0.10862   0.30667   0.55029   0.00000  Uiso   1.00
C226   C     0.28512   0.42349   0.68309   0.00000  Uiso   1.00
C227   C     0.22278   0.38248   0.63899   0.00000  Uiso   1.00
C228   C     0.27211   0.36396   0.61310   0.00000  Uiso   1.00
C229   C     0.21066   0.32049   0.56980   0.00000  Uiso   1.00
H230   H     0.13516   0.36608   0.62847   0.05066  Uiso   1.00
H231   H     0.36114   0.37893   0.62419   0.05066  Uiso   1.00
H232   H     0.46148   0.48721   0.81533   0.05066  Uiso   1.00
O233   O     0.40994   0.24135   0.52993   0.00000  Uiso   1.00
O234   O     0.37648   0.29993   0.94205   0.00000  Uiso   1.00
O235   O     0.23078   0.31562   0.95781   0.00000  Uiso   1.00
O236   O     0.27470   0.45335   0.81017   0.00000  Uiso   1.00
O237   O     0.10862   0.44333   0.80029   0.00000  Uiso   1.00
C238   C     0.28512   0.32651   0.93309   0.00000  Uiso   1.00
C239   C     0.22278   0.36752   0.88899   0.00000  Uiso   1.00
C240   C     0.27211   0.38604   0.86310   0.00000  Uiso   1.00
C241   C     0.21066   0.42951   0.81980   0.00000  Uiso   1.00
H242   H     0.13516   0.38392   0.87847   0.05066  Uiso   1.00
H243   H     0.36114   0.37107   0.87419   0.05066  Uiso   1.00
H244   H     0.46148   0.26279   0.56533   0.05066  Uiso   1.00
O245   O     0.09006   0.49134   0.72007   0.00000  Uiso   1.00
O246   O     0.12352   0.04993   0.80795   0.00000  Uiso   1.00
O247   O     0.26922   0.06562   0.79219   0.00000  Uiso   1.00
O248   O     0.22530   0.20335   0.93983   0.00000  Uiso   1.00
O249   O     0.39138   0.19333   0.94971   0.00000  Uiso   1.00
C250   C     0.21488   0.07651   0.81691   0.00000  Uiso   1.00
C251   C     0.27722   0.11752   0.86101   0.00000  Uiso   1.00
C252   C     0.22789   0.13604   0.88690   0.00000  Uiso   1.00
C253   C     0.28934   0.17951   0.93020   0.00000  Uiso   1.00
H254   H     0.36484   0.13392   0.87153   0.05066  Uiso   1.00
H255   H     0.13886   0.12107   0.87581   0.05066  Uiso   1.00
H256   H     0.03852   0.01279   0.68467   0.05066  Uiso   1.00
Al257  Al    0.25000   0.25000   0.50000   0.00000  Uiso   1.00
Al258  Al    0.25000   0.00000   0.75000   0.00000  Uiso   1.00
Al259  Al    0.00000   0.25000   0.50000   0.00000  Uiso   1.00
Al260  Al    0.00000   0.00000   0.75000   0.00000  Uiso   1.00
O261   O     0.59006   0.25865   0.97007   0.00000  Uiso   1.00
O262   O     0.62352   0.20007   0.55795   0.00000  Uiso   1.00
O263   O     0.76922   0.18438   0.54219   0.00000  Uiso   1.00
O264   O     0.72530   0.04665   0.68983   0.00000  Uiso   1.00
O265   O     0.89138   0.05667   0.69971   0.00000  Uiso   1.00
C266   C     0.71488   0.17349   0.56691   0.00000  Uiso   1.00
C267   C     0.77722   0.13248   0.61101   0.00000  Uiso   1.00
C268   C     0.72789   0.11396   0.63690   0.00000  Uiso   1.00
C269   C     0.78934   0.07049   0.68020   0.00000  Uiso   1.00
H270   H     0.86484   0.11608   0.62153   0.05066  Uiso   1.00
H271   H     0.63886   0.12893   0.62581   0.05066  Uiso   1.00
H272   H     0.53852   0.23721   0.93467   0.05066  Uiso   1.00
O273   O     0.90994   0.00865   0.77993   0.00000  Uiso   1.00
O274   O     0.87648   0.45007   0.69205   0.00000  Uiso   1.00
O275   O     0.73078   0.43438   0.70781   0.00000  Uiso   1.00
O276   O     0.77470   0.29665   0.56017   0.00000  Uiso   1.00
O277   O     0.60862   0.30667   0.55029   0.00000  Uiso   1.00
C278   C     0.78512   0.42349   0.68309   0.00000  Uiso   1.00
C279   C     0.72278   0.38248   0.63899   0.00000  Uiso   1.00
C280   C     0.77211   0.36396   0.61310   0.00000  Uiso   1.00
C281   C     0.71066   0.32049   0.56980   0.00000  Uiso   1.00
H282   H     0.63516   0.36608   0.62847   0.05066  Uiso   1.00
H283   H     0.86114   0.37893   0.62419   0.05066  Uiso   1.00
H284   H     0.96147   0.48721   0.81533   0.05066  Uiso   1.00
O285   O     0.90994   0.24135   0.52993   0.00000  Uiso   1.00
O286   O     0.87648   0.29993   0.94205   0.00000  Uiso   1.00
O287   O     0.73078   0.31562   0.95781   0.00000  Uiso   1.00
O288   O     0.77470   0.45335   0.81017   0.00000  Uiso   1.00
O289   O     0.60862   0.44333   0.80029   0.00000  Uiso   1.00
C290   C     0.78512   0.32651   0.93309   0.00000  Uiso   1.00
C291   C     0.72278   0.36752   0.88899   0.00000  Uiso   1.00
C292   C     0.77211   0.38604   0.86310   0.00000  Uiso   1.00
C293   C     0.71066   0.42951   0.81980   0.00000  Uiso   1.00
H294   H     0.63516   0.38392   0.87847   0.05066  Uiso   1.00
H295   H     0.86114   0.37107   0.87419   0.05066  Uiso   1.00
H296   H     0.96147   0.26279   0.56533   0.05066  Uiso   1.00
O297   O     0.59006   0.49134   0.72007   0.00000  Uiso   1.00
O298   O     0.62352   0.04993   0.80795   0.00000  Uiso   1.00
O299   O     0.76922   0.06562   0.79219   0.00000  Uiso   1.00
O300   O     0.72530   0.20335   0.93983   0.00000  Uiso   1.00
O301   O     0.89138   0.19333   0.94971   0.00000  Uiso   1.00
C302   C     0.71488   0.07651   0.81691   0.00000  Uiso   1.00
C303   C     0.77722   0.11752   0.86101   0.00000  Uiso   1.00
C304   C     0.72789   0.13604   0.88690   0.00000  Uiso   1.00
C305   C     0.78934   0.17951   0.93020   0.00000  Uiso   1.00
H306   H     0.86484   0.13392   0.87153   0.05066  Uiso   1.00
H307   H     0.63886   0.12107   0.87581   0.05066  Uiso   1.00
H308   H     0.53852   0.01279   0.68467   0.05066  Uiso   1.00
Al309  Al    0.75000   0.25000   0.50000   0.00000  Uiso   1.00
Al310  Al    0.75000   0.00000   0.75000   0.00000  Uiso   1.00
Al311  Al    0.50000   0.25000   0.50000   0.00000  Uiso   1.00
Al312  Al    0.50000   0.00000   0.75000   0.00000  Uiso   1.00
O313   O     0.09006   0.75865   0.97007   0.00000  Uiso   1.00
O314   O     0.12352   0.70008   0.55795   0.00000  Uiso   1.00
O315   O     0.26922   0.68438   0.54219   0.00000  Uiso   1.00
O316   O     0.22530   0.54665   0.68983   0.00000  Uiso   1.00
O317   O     0.39138   0.55667   0.69971   0.00000  Uiso   1.00
C318   C     0.21488   0.67349   0.56691   0.00000  Uiso   1.00
C319   C     0.27722   0.63248   0.61101   0.00000  Uiso   1.00
C320   C     0.22789   0.61396   0.63690   0.00000  Uiso   1.00
C321   C     0.28934   0.57049   0.68020   0.00000  Uiso   1.00
H322   H     0.36484   0.61608   0.62153   0.05066  Uiso   1.00
H323   H     0.13886   0.62894   0.62581   0.05066  Uiso   1.00
H324   H     0.03852   0.73721   0.93467   0.05066  Uiso   1.00
O325   O     0.40994   0.50865   0.77993   0.00000  Uiso   1.00
O326   O     0.37648   0.95007   0.69205   0.00000  Uiso   1.00
O327   O     0.23078   0.93438   0.70781   0.00000  Uiso   1.00
O328   O     0.27470   0.79665   0.56017   0.00000  Uiso   1.00
O329   O     0.10862   0.80667   0.55029   0.00000  Uiso   1.00
C330   C     0.28512   0.92349   0.68309   0.00000  Uiso   1.00
C331   C     0.22278   0.88248   0.63899   0.00000  Uiso   1.00
C332   C     0.27211   0.86396   0.61310   0.00000  Uiso   1.00
C333   C     0.21066   0.82049   0.56980   0.00000  Uiso   1.00
H334   H     0.13516   0.86608   0.62847   0.05066  Uiso   1.00
H335   H     0.36114   0.87893   0.62419   0.05066  Uiso   1.00
H336   H     0.46148   0.98721   0.81533   0.05066  Uiso   1.00
O337   O     0.40994   0.74135   0.52993   0.00000  Uiso   1.00
O338   O     0.37648   0.79993   0.94205   0.00000  Uiso   1.00
O339   O     0.23078   0.81562   0.95781   0.00000  Uiso   1.00
O340   O     0.27470   0.95335   0.81017   0.00000  Uiso   1.00
O341   O     0.10862   0.94333   0.80029   0.00000  Uiso   1.00
C342   C     0.28512   0.82651   0.93309   0.00000  Uiso   1.00
C343   C     0.22278   0.86752   0.88899   0.00000  Uiso   1.00
C344   C     0.27211   0.88604   0.86310   0.00000  Uiso   1.00
C345   C     0.21066   0.92951   0.81980   0.00000  Uiso   1.00
H346   H     0.13516   0.88392   0.87847   0.05066  Uiso   1.00
H347   H     0.36114   0.87107   0.87419   0.05066  Uiso   1.00
H348   H     0.46148   0.76279   0.56533   0.05066  Uiso   1.00
O349   O     0.09006   0.99135   0.72007   0.00000  Uiso   1.00
O350   O     0.12352   0.54993   0.80795   0.00000  Uiso   1.00
O351   O     0.26922   0.56562   0.79219   0.00000  Uiso   1.00
O352   O     0.22530   0.70335   0.93983   0.00000  Uiso   1.00
O353   O     0.39138   0.69333   0.94971   0.00000  Uiso   1.00
C354   C     0.21488   0.57651   0.81691   0.00000  Uiso   1.00
C355   C     0.27722   0.61752   0.86101   0.00000  Uiso   1.00
C356   C     0.22789   0.63604   0.88690   0.00000  Uiso   1.00
C357   C     0.28934   0.67951   0.93020   0.00000  Uiso   1.00
H358   H     0.36484   0.63392   0.87153   0.05066  Uiso   1.00
H359   H     0.13886   0.62107   0.87581   0.05066  Uiso   1.00
H360   H     0.03852   0.51279   0.68467   0.05066  Uiso   1.00
Al361  Al    0.25000   0.75000   0.50000   0.00000  Uiso   1.00
Al362  Al    0.25000   0.50000   0.75000   0.00000  Uiso   1.00
Al363  Al    0.00000   0.75000   0.50000   0.00000  Uiso   1.00
Al364  Al    0.00000   0.50000   0.75000   0.00000  Uiso   1.00
O365   O     0.59006   0.75865   0.97007   0.00000  Uiso   1.00
O366   O     0.62352   0.70008   0.55795   0.00000  Uiso   1.00
O367   O     0.76922   0.68438   0.54219   0.00000  Uiso   1.00
O368   O     0.72530   0.54665   0.68983   0.00000  Uiso   1.00
O369   O     0.89138   0.55667   0.69971   0.00000  Uiso   1.00
C370   C     0.71488   0.67349   0.56691   0.00000  Uiso   1.00
C371   C     0.77722   0.63248   0.61101   0.00000  Uiso   1.00
C372   C     0.72789   0.61396   0.63690   0.00000  Uiso   1.00
C373   C     0.78934   0.57049   0.68020   0.00000  Uiso   1.00
H374   H     0.86484   0.61608   0.62153   0.05066  Uiso   1.00
H375   H     0.63886   0.62894   0.62581   0.05066  Uiso   1.00
H376   H     0.53852   0.73721   0.93467   0.05066  Uiso   1.00
O377   O     0.90994   0.50865   0.77993   0.00000  Uiso   1.00
O378   O     0.87648   0.95007   0.69205   0.00000  Uiso   1.00
O379   O     0.73078   0.93438   0.70781   0.00000  Uiso   1.00
O380   O     0.77470   0.79665   0.56017   0.00000  Uiso   1.00
O381   O     0.60862   0.80667   0.55029   0.00000  Uiso   1.00
C382   C     0.78512   0.92349   0.68309   0.00000  Uiso   1.00
C383   C     0.72278   0.88248   0.63899   0.00000  Uiso   1.00
C384   C     0.77211   0.86396   0.61310   0.00000  Uiso   1.00
C385   C     0.71066   0.82049   0.56980   0.00000  Uiso   1.00
H386   H     0.63516   0.86608   0.62847   0.05066  Uiso   1.00
H387   H     0.86114   0.87893   0.62419   0.05066  Uiso   1.00
H388   H     0.96147   0.98721   0.81533   0.05066  Uiso   1.00
O389   O     0.90994   0.74135   0.52993   0.00000  Uiso   1.00
O390   O     0.87648   0.79993   0.94205   0.00000  Uiso   1.00
O391   O     0.73078   0.81562   0.95781   0.00000  Uiso   1.00
O392   O     0.77470   0.95335   0.81017   0.00000  Uiso   1.00
O393   O     0.60862   0.94333   0.80029   0.00000  Uiso   1.00
C394   C     0.78512   0.82651   0.93309   0.00000  Uiso   1.00
C395   C     0.72278   0.86752   0.88899   0.00000  Uiso   1.00
C396   C     0.77211   0.88604   0.86310   0.00000  Uiso   1.00
C397   C     0.71066   0.92951   0.81980   0.00000  Uiso   1.00
H398   H     0.63516   0.88392   0.87847   0.05066  Uiso   1.00
H399   H     0.86114   0.87107   0.87419   0.05066  Uiso   1.00
H400   H     0.96147   0.76279   0.56533   0.05066  Uiso   1.00
O401   O     0.59006   0.99135   0.72007   0.00000  Uiso   1.00
O402   O     0.62352   0.54993   0.80795   0.00000  Uiso   1.00
O403   O     0.76922   0.56562   0.79219   0.00000  Uiso   1.00
O404   O     0.72530   0.70335   0.93983   0.00000  Uiso   1.00
O405   O     0.89138   0.69333   0.94971   0.00000  Uiso   1.00
C406   C     0.71488   0.57651   0.81691   0.00000  Uiso   1.00
C407   C     0.77722   0.61752   0.86101   0.00000  Uiso   1.00
C408   C     0.72789   0.63604   0.88690   0.00000  Uiso   1.00
C409   C     0.78934   0.67951   0.93020   0.00000  Uiso   1.00
H410   H     0.86484   0.63392   0.87153   0.05066  Uiso   1.00
H411   H     0.63886   0.62107   0.87581   0.05066  Uiso   1.00
H412   H     0.53852   0.51279   0.68467   0.05066  Uiso   1.00
Al413  Al    0.75000   0.75000   0.50000   0.00000  Uiso   1.00
Al414  Al    0.75000   0.50000   0.75000   0.00000  Uiso   1.00
Al415  Al    0.50000   0.75000   0.50000   0.00000  Uiso   1.00
Al416  Al    0.50000   0.50000   0.75000   0.00000  Uiso   1.00
loop_
_geom_bond_atom_site_label_1
_geom_bond_atom_site_label_2
_geom_bond_distance
_geom_bond_site_symmetry_2
_ccdc_geom_bond_type
O1     H12     1.007   .     S
O1     Al257   1.885   .     S
O1     Al259   1.847   .     S
O2     C6      1.303   .     D
O2     Al51    2.008   .     S
O3     C6      1.295   .     S
O3     Al49    1.919   .     S
O4     C9      1.197   .     D
O4     Al50    1.920   .     S
O5     C9      1.239   .     S
O5     Al104   1.960   .     S
C6     C7      1.460   .     S
C7     C8      1.316   .     D
C7     H10     1.140   .     S
C8     C9      1.487   .     S
C8     H11     1.141   .     S
O13    H128    1.007   1_545 S
O13    Al50    1.885   .     S
O13    Al104   1.847   .     S
O14    C18     1.303   .     D
O14    Al208   2.008   .     S
O15    C18     1.295   .     S
O15    Al154   1.919   .     S
O16    C21     1.197   .     D
O16    Al49    1.920   .     S
O17    C21     1.239   .     S
O17    Al51    1.960   .     S
C18    C19     1.460   .     S
C19    C20     1.316   .     D
C19    H22     1.140   .     S
C20    C21     1.487   .     S
C20    H23     1.141   .     S
H24    O117    1.007   .     S
O25    H36     1.007   .     S
O25    Al49    1.885   .     S
O25    Al103   1.847   .     S
O26    C30     1.303   .     D
O26    Al311   2.008   .     S
O27    C30     1.295   .     S
O27    Al257   1.919   .     S
O28    C33     1.197   .     D
O28    Al154   1.920   .     S
O29    C33     1.239   .     S
O29    Al156   1.960   .     S
C30    C31     1.460   .     S
C31    C32     1.316   .     D
C31    H34     1.140   .     S
C32    C33     1.487   .     S
C32    H35     1.141   .     S
O37    H152    1.007   .     S
O37    Al154   1.885   .     S
O37    Al156   1.847   .     S
O38    C42     1.303   .     D
O38    Al52    2.008   .     S
O39    C42     1.295   .     S
O39    Al50    1.919   .     S
O40    C45     1.197   .     D
O40    Al257   1.920   .     S
O41    C45     1.239   .     S
O41    Al311   1.960   .     S
C42    C43     1.460   .     S
C43    C44     1.316   .     D
C43    H46     1.140   .     S
C44    C45     1.487   .     S
C44    H47     1.141   .     S
H48    O141    1.007   1_545 S
Al49   O209    1.885   1_554 S
Al49   O235    1.919   1_554 S
Al49   O248    1.920   1_554 S
Al50   O141    1.885   1_545 S
Al50   O119    1.919   1_545 S
Al50   O132    1.920   1_545 S
Al51   O286    2.008   1_454 S
Al51   O209    1.847   1_554 S
Al51   O77     1.847   1_455 S
Al51   O301    1.960   1_454 S
Al52   O170    2.008   1_445 S
Al52   O65     1.847   1_455 S
Al52   O141    1.847   1_545 S
Al52   O57     1.960   1_455 S
Al52   O133    1.960   1_545 S
O53    H64     1.007   .     S
O53    Al309   1.885   .     S
O53    Al311   1.847   .     S
O54    C58     1.303   .     D
O54    Al103   2.008   .     S
O55    C58     1.295   .     S
O55    Al101   1.919   .     S
O56    C61     1.197   .     D
O56    Al102   1.920   .     S
O57    C61     1.239   .     S
O57    Al52    1.960   1_655 S
C58    C59     1.460   .     S
C59    C60     1.316   .     D
C59    H62     1.140   .     S
C60    C61     1.487   .     S
C60    H63     1.141   .     S
O65    H180    1.007   1_545 S
O65    Al102   1.885   .     S
O65    Al52    1.847   1_655 S
O66    C70     1.303   .     D
O66    Al156   2.008   1_655 S
O67    C70     1.295   .     S
O67    Al206   1.919   .     S
O68    C73     1.197   .     D
O68    Al101   1.920   .     S
O69    C73     1.239   .     S
O69    Al103   1.960   .     S
C70    C71     1.460   .     S
C71    C72     1.316   .     D
C71    H74     1.140   .     S
C72    C73     1.487   .     S
C72    H75     1.141   .     S
H76    O169    1.007   .     S
O77    H88     1.007   .     S
O77    Al101   1.885   .     S
O77    Al51    1.847   1_655 S
O78    C82     1.303   .     D
O78    Al259   2.008   1_655 S
O79    C82     1.295   .     S
O79    Al309   1.919   .     S
O80    C85     1.197   .     D
O80    Al206   1.920   .     S
O81    C85     1.239   .     S
O81    Al208   1.960   .     S
C82    C83     1.460   .     S
C83    C84     1.316   .     D
C83    H86     1.140   .     S
C84    C85     1.487   .     S
C84    H87     1.141   .     S
O89    H204    1.007   .     S
O89    Al206   1.885   .     S
O89    Al208   1.847   .     S
O90    C94     1.303   .     D
O90    Al104   2.008   .     S
O91    C94     1.295   .     S
O91    Al102   1.919   .     S
O92    C97     1.197   .     D
O92    Al309   1.920   .     S
O93    C97     1.239   .     S
O93    Al259   1.960   1_655 S
C94    C95     1.460   .     S
C95    C96     1.316   .     D
C95    H98     1.140   .     S
C96    C97     1.487   .     S
C96    H99     1.141   .     S
H100   O193    1.007   1_545 S
Al101  O261    1.885   1_554 S
Al101  O287    1.919   1_554 S
Al101  O300    1.920   1_554 S
Al102  O193    1.885   1_545 S
Al102  O171    1.919   1_545 S
Al102  O184    1.920   1_545 S
Al103  O234    2.008   1_554 S
Al103  O261    1.847   1_554 S
Al103  O249    1.960   1_554 S
Al104  O118    2.008   1_545 S
Al104  O193    1.847   1_545 S
Al104  O185    1.960   1_545 S
O105   H116    1.007   .     S
O105   Al361   1.885   .     S
O105   Al363   1.847   .     S
O106   C110    1.303   .     D
O106   Al155   2.008   .     S
O107   C110    1.295   .     S
O107   Al153   1.919   .     S
O108   C113    1.197   .     D
O108   Al154   1.920   .     S
O109   C113    1.239   .     S
O109   Al208   1.960   .     S
C110   C111    1.460   .     S
C111   C112    1.316   .     D
C111   H114    1.140   .     S
C112   C113    1.487   .     S
C112   H115    1.141   .     S
O117   Al154   1.885   .     S
O117   Al208   1.847   .     S
O118   C122    1.303   .     D
O118   Al104   2.008   1_565 S
O119   C122    1.295   .     S
O119   Al50    1.919   1_565 S
O120   C125    1.197   .     D
O120   Al153   1.920   .     S
O121   C125    1.239   .     S
O121   Al155   1.960   .     S
C122   C123    1.460   .     S
C123   C124    1.316   .     D
C123   H126    1.140   .     S
C124   C125    1.487   .     S
C124   H127    1.141   .     S
H128   O13     1.007   1_565 S
O129   H140    1.007   .     S
O129   Al153   1.885   .     S
O129   Al207   1.847   .     S
O130   C134    1.303   .     D
O130   Al415   2.008   .     S
O131   C134    1.295   .     S
O131   Al361   1.919   .     S
O132   C137    1.197   .     D
O132   Al50    1.920   1_565 S
O133   C137    1.239   .     S
O133   Al52    1.960   1_565 S
C134   C135    1.460   .     S
C135   C136    1.316   .     D
C135   H138    1.140   .     S
C136   C137    1.487   .     S
C136   H139    1.141   .     S
O141   H48     1.007   1_565 S
O141   Al50    1.885   1_565 S
O141   Al52    1.847   1_565 S
O142   C146    1.303   .     D
O142   Al156   2.008   .     S
O143   C146    1.295   .     S
O143   Al154   1.919   .     S
O144   C149    1.197   .     D
O144   Al361   1.920   .     S
O145   C149    1.239   .     S
O145   Al415   1.960   .     S
C146   C147    1.460   .     S
C147   C148    1.316   .     D
C147   H150    1.140   .     S
C148   C149    1.487   .     S
C148   H151    1.141   .     S
Al153  O313    1.885   1_554 S
Al153  O339    1.919   1_554 S
Al153  O352    1.920   1_554 S
Al155  O390    2.008   1_454 S
Al155  O313    1.847   1_554 S
Al155  O181    1.847   1_455 S
Al155  O405    1.960   1_454 S
Al156  O66     2.008   1_455 S
Al156  O169    1.847   1_455 S
Al156  O161    1.960   1_455 S
O157   H168    1.007   .     S
O157   Al413   1.885   .     S
O157   Al415   1.847   .     S
O158   C162    1.303   .     D
O158   Al207   2.008   .     S
O159   C162    1.295   .     S
O159   Al205   1.919   .     S
O160   C165    1.197   .     D
O160   Al206   1.920   .     S
O161   C165    1.239   .     S
O161   Al156   1.960   1_655 S
C162   C163    1.460   .     S
C163   C164    1.316   .     D
C163   H166    1.140   .     S
C164   C165    1.487   .     S
C164   H167    1.141   .     S
O169   Al206   1.885   .     S
O169   Al156   1.847   1_655 S
O170   C174    1.303   .     D
O170   Al52    2.008   1_665 S
O171   C174    1.295   .     S
O171   Al102   1.919   1_565 S
O172   C177    1.197   .     D
O172   Al205   1.920   .     S
O173   C177    1.239   .     S
O173   Al207   1.960   .     S
C174   C175    1.460   .     S
C175   C176    1.316   .     D
C175   H178    1.140   .     S
C176   C177    1.487   .     S
C176   H179    1.141   .     S
H180   O65     1.007   1_565 S
O181   H192    1.007   .     S
O181   Al205   1.885   .     S
O181   Al155   1.847   1_655 S
O182   C186    1.303   .     D
O182   Al363   2.008   1_655 S
O183   C186    1.295   .     S
O183   Al413   1.919   .     S
O184   C189    1.197   .     D
O184   Al102   1.920   1_565 S
O185   C189    1.239   .     S
O185   Al104   1.960   1_565 S
C186   C187    1.460   .     S
C187   C188    1.316   .     D
C187   H190    1.140   .     S
C188   C189    1.487   .     S
C188   H191    1.141   .     S
O193   H100    1.007   1_565 S
O193   Al102   1.885   1_565 S
O193   Al104   1.847   1_565 S
O194   C198    1.303   .     D
O194   Al208   2.008   .     S
O195   C198    1.295   .     S
O195   Al206   1.919   .     S
O196   C201    1.197   .     D
O196   Al413   1.920   .     S
O197   C201    1.239   .     S
O197   Al363   1.960   1_655 S
C198   C199    1.460   .     S
C199   C200    1.316   .     D
C199   H202    1.140   .     S
C200   C201    1.487   .     S
C200   H203    1.141   .     S
Al205  O365    1.885   1_554 S
Al205  O391    1.919   1_554 S
Al205  O404    1.920   1_554 S
Al207  O338    2.008   1_554 S
Al207  O365    1.847   1_554 S
Al207  O353    1.960   1_554 S
O209   H220    1.007   .     S
O209   Al49    1.885   1_556 S
O209   Al51    1.847   1_556 S
O210   C214    1.303   .     D
O210   Al259   2.008   .     S
O211   C214    1.295   .     S
O211   Al257   1.919   .     S
O212   C217    1.197   .     D
O212   Al258   1.920   .     S
O213   C217    1.239   .     S
O213   Al312   1.960   .     S
C214   C215    1.460   .     S
C215   C216    1.316   .     D
C215   H218    1.140   .     S
C216   C217    1.487   .     S
C216   H219    1.141   .     S
O221   H336    1.007   1_545 S
O221   Al258   1.885   .     S
O221   Al312   1.847   .     S
O222   C226    1.303   .     D
O222   Al416   2.008   .     S
O223   C226    1.295   .     S
O223   Al362   1.919   .     S
O224   C229    1.197   .     D
O224   Al257   1.920   .     S
O225   C229    1.239   .     S
O225   Al259   1.960   .     S
C226   C227    1.460   .     S
C227   C228    1.316   .     D
C227   H230    1.140   .     S
C228   C229    1.487   .     S
C228   H231    1.141   .     S
H232   O325    1.007   .     S
O233   H244    1.007   .     S
O233   Al257   1.885   .     S
O233   Al311   1.847   .     S
O234   C238    1.303   .     D
O234   Al103   2.008   1_556 S
O235   C238    1.295   .     S
O235   Al49    1.919   1_556 S
O236   C241    1.197   .     D
O236   Al362   1.920   .     S
O237   C241    1.239   .     S
O237   Al364   1.960   .     S
C238   C239    1.460   .     S
C239   C240    1.316   .     D
C239   H242    1.140   .     S
C240   C241    1.487   .     S
C240   H243    1.141   .     S
O245   H360    1.007   .     S
O245   Al362   1.885   .     S
O245   Al364   1.847   .     S
O246   C250    1.303   .     D
O246   Al260   2.008   .     S
O247   C250    1.295   .     S
O247   Al258   1.919   .     S
O248   C253    1.197   .     D
O248   Al49    1.920   1_556 S
O249   C253    1.239   .     S
O249   Al103   1.960   1_556 S
C250   C251    1.460   .     S
C251   C252    1.316   .     D
C251   H254    1.140   .     S
C252   C253    1.487   .     S
C252   H255    1.141   .     S
H256   O349    1.007   1_545 S
Al258  O349    1.885   1_545 S
Al258  O327    1.919   1_545 S
Al258  O340    1.920   1_545 S
Al259  O78     2.008   1_455 S
Al259  O285    1.847   1_455 S
Al259  O93     1.960   1_455 S
Al260  O378    2.008   1_445 S
Al260  O273    1.847   1_455 S
Al260  O349    1.847   1_545 S
Al260  O265    1.960   1_455 S
Al260  O341    1.960   1_545 S
O261   H272    1.007   .     S
O261   Al101   1.885   1_556 S
O261   Al103   1.847   1_556 S
O262   C266    1.303   .     D
O262   Al311   2.008   .     S
O263   C266    1.295   .     S
O263   Al309   1.919   .     S
O264   C269    1.197   .     D
O264   Al310   1.920   .     S
O265   C269    1.239   .     S
O265   Al260   1.960   1_655 S
C266   C267    1.460   .     S
C267   C268    1.316   .     D
C267   H270    1.140   .     S
C268   C269    1.487   .     S
C268   H271    1.141   .     S
O273   H388    1.007   1_545 S
O273   Al310   1.885   .     S
O273   Al260   1.847   1_655 S
O274   C278    1.303   .     D
O274   Al364   2.008   1_655 S
O275   C278    1.295   .     S
O275   Al414   1.919   .     S
O276   C281    1.197   .     D
O276   Al309   1.920   .     S
O277   C281    1.239   .     S
O277   Al311   1.960   .     S
C278   C279    1.460   .     S
C279   C280    1.316   .     D
C279   H282    1.140   .     S
C280   C281    1.487   .     S
C280   H283    1.141   .     S
H284   O377    1.007   .     S
O285   H296    1.007   .     S
O285   Al309   1.885   .     S
O285   Al259   1.847   1_655 S
O286   C290    1.303   .     D
O286   Al51    2.008   1_656 S
O287   C290    1.295   .     S
O287   Al101   1.919   1_556 S
O288   C293    1.197   .     D
O288   Al414   1.920   .     S
O289   C293    1.239   .     S
O289   Al416   1.960   .     S
C290   C291    1.460   .     S
C291   C292    1.316   .     D
C291   H294    1.140   .     S
C292   C293    1.487   .     S
C292   H295    1.141   .     S
O297   H412    1.007   .     S
O297   Al414   1.885   .     S
O297   Al416   1.847   .     S
O298   C302    1.303   .     D
O298   Al312   2.008   .     S
O299   C302    1.295   .     S
O299   Al310   1.919   .     S
O300   C305    1.197   .     D
O300   Al101   1.920   1_556 S
O301   C305    1.239   .     S
O301   Al51    1.960   1_656 S
C302   C303    1.460   .     S
C303   C304    1.316   .     D
C303   H306    1.140   .     S
C304   C305    1.487   .     S
C304   H307    1.141   .     S
H308   O401    1.007   1_545 S
Al310  O401    1.885   1_545 S
Al310  O379    1.919   1_545 S
Al310  O392    1.920   1_545 S
Al312  O326    2.008   1_545 S
Al312  O401    1.847   1_545 S
Al312  O393    1.960   1_545 S
O313   H324    1.007   .     S
O313   Al153   1.885   1_556 S
O313   Al155   1.847   1_556 S
O314   C318    1.303   .     D
O314   Al363   2.008   .     S
O315   C318    1.295   .     S
O315   Al361   1.919   .     S
O316   C321    1.197   .     D
O316   Al362   1.920   .     S
O317   C321    1.239   .     S
O317   Al416   1.960   .     S
C318   C319    1.460   .     S
C319   C320    1.316   .     D
C319   H322    1.140   .     S
C320   C321    1.487   .     S
C320   H323    1.141   .     S
O325   Al362   1.885   .     S
O325   Al416   1.847   .     S
O326   C330    1.303   .     D
O326   Al312   2.008   1_565 S
O327   C330    1.295   .     S
O327   Al258   1.919   1_565 S
O328   C333    1.197   .     D
O328   Al361   1.920   .     S
O329   C333    1.239   .     S
O329   Al363   1.960   .     S
C330   C331    1.460   .     S
C331   C332    1.316   .     D
C331   H334    1.140   .     S
C332   C333    1.487   .     S
C332   H335    1.141   .     S
H336   O221    1.007   1_565 S
O337   H348    1.007   .     S
O337   Al361   1.885   .     S
O337   Al415   1.847   .     S
O338   C342    1.303   .     D
O338   Al207   2.008   1_556 S
O339   C342    1.295   .     S
O339   Al153   1.919   1_556 S
O340   C345    1.197   .     D
O340   Al258   1.920   1_565 S
O341   C345    1.239   .     S
O341   Al260   1.960   1_565 S
C342   C343    1.460   .     S
C343   C344    1.316   .     D
C343   H346    1.140   .     S
C344   C345    1.487   .     S
C344   H347    1.141   .     S
O349   H256    1.007   1_565 S
O349   Al258   1.885   1_565 S
O349   Al260   1.847   1_565 S
O350   C354    1.303   .     D
O350   Al364   2.008   .     S
O351   C354    1.295   .     S
O351   Al362   1.919   .     S
O352   C357    1.197   .     D
O352   Al153   1.920   1_556 S
O353   C357    1.239   .     S
O353   Al207   1.960   1_556 S
C354   C355    1.460   .     S
C355   C356    1.316   .     D
C355   H358    1.140   .     S
C356   C357    1.487   .     S
C356   H359    1.141   .     S
Al363  O182    2.008   1_455 S
Al363  O389    1.847   1_455 S
Al363  O197    1.960   1_455 S
Al364  O274    2.008   1_455 S
Al364  O377    1.847   1_455 S
Al364  O369    1.960   1_455 S
O365   H376    1.007   .     S
O365   Al205   1.885   1_556 S
O365   Al207   1.847   1_556 S
O366   C370    1.303   .     D
O366   Al415   2.008   .     S
O367   C370    1.295   .     S
O367   Al413   1.919   .     S
O368   C373    1.197   .     D
O368   Al414   1.920   .     S
O369   C373    1.239   .     S
O369   Al364   1.960   1_655 S
C370   C371    1.460   .     S
C371   C372    1.316   .     D
C371   H374    1.140   .     S
C372   C373    1.487   .     S
C372   H375    1.141   .     S
O377   Al414   1.885   .     S
O377   Al364   1.847   1_655 S
O378   C382    1.303   .     D
O378   Al260   2.008   1_665 S
O379   C382    1.295   .     S
O379   Al310   1.919   1_565 S
O380   C385    1.197   .     D
O380   Al413   1.920   .     S
O381   C385    1.239   .     S
O381   Al415   1.960   .     S
C382   C383    1.460   .     S
C383   C384    1.316   .     D
C383   H386    1.140   .     S
C384   C385    1.487   .     S
C384   H387    1.141   .     S
H388   O273    1.007   1_565 S
O389   H400    1.007   .     S
O389   Al413   1.885   .     S
O389   Al363   1.847   1_655 S
O390   C394    1.303   .     D
O390   Al155   2.008   1_656 S
O391   C394    1.295   .     S
O391   Al205   1.919   1_556 S
O392   C397    1.197   .     D
O392   Al310   1.920   1_565 S
O393   C397    1.239   .     S
O393   Al312   1.960   1_565 S
C394   C395    1.460   .     S
C395   C396    1.316   .     D
C395   H398    1.140   .     S
C396   C397    1.487   .     S
C396   H399    1.141   .     S
O401   H308    1.007   1_565 S
O401   Al310   1.885   1_565 S
O401   Al312   1.847   1_565 S
O402   C406    1.303   .     D
O402   Al416   2.008   .     S
O403   C406    1.295   .     S
O403   Al414   1.919   .     S
O404   C409    1.197   .     D
O404   Al205   1.920   1_556 S
O405   C409    1.239   .     S
O405   Al155   1.960   1_656 S
C406   C407    1.460   .     S
C407   C408    1.316   .     D
C407   H410    1.140   .     S
C408   C409    1.487   .     S
C408   H411    1.141   .     S
