data_NU-1200
_audit_creation_date              2023-01-09
_audit_creation_method            'Materials Studio'
_symmetry_space_group_name_H-M    'P1'
_symmetry_Int_Tables_number       1
_symmetry_cell_setting            triclinic
loop_
_symmetry_equiv_pos_as_xyz
  x,y,z
_cell_length_a                    28.3310
_cell_length_b                    28.3310
_cell_length_c                    28.3310
_cell_angle_alpha                 90.0000
_cell_angle_beta                  90.0000
_cell_angle_gamma                 90.0000
loop_
_atom_site_label
_atom_site_type_symbol
_atom_site_fract_x
_atom_site_fract_y
_atom_site_fract_z
_atom_site_U_iso_or_equiv
_atom_site_adp_type
_atom_site_occupancy
H1     H     0.57572   0.26833   0.70447   0.17700  Uiso   0.50
H2     H     0.59183   0.28460   0.76327   0.17700  Uiso   0.50
H3     H     0.61227   0.22986   0.73993   0.17700  Uiso   0.50
H4     H     0.42461   0.26930   0.29575   0.17700  Uiso   0.50
H5     H     0.40813   0.28490   0.23683   0.17700  Uiso   0.50
H6     H     0.38824   0.23022   0.26079   0.17700  Uiso   0.50
H7     H     0.29546   0.42441   0.26839   0.17700  Uiso   0.50
H8     H     0.23666   0.40830   0.28465   0.17700  Uiso   0.50
H9     H     0.26000   0.38788   0.22990   0.17700  Uiso   0.50
H10    H     0.29590   0.73169   0.57563   0.17700  Uiso   0.50
H11    H     0.73081   0.70476   0.42457   0.17700  Uiso   0.50
H12    H     0.71509   0.76361   0.40808   0.17700  Uiso   0.50
H13    H     0.76983   0.73978   0.38819   0.17700  Uiso   0.50
H14    H     0.73082   0.29576   0.57533   0.17700  Uiso   0.50
H15    H     0.71527   0.23683   0.59183   0.17700  Uiso   0.50
H16    H     0.76994   0.26083   0.61171   0.17700  Uiso   0.50
H17    H     0.26909   0.57537   0.29576   0.17700  Uiso   0.50
H18    H     0.28463   0.59186   0.23682   0.17700  Uiso   0.50
H19    H     0.22995   0.61170   0.26082   0.17700  Uiso   0.50
H20    H     0.73162   0.42440   0.29562   0.17700  Uiso   0.50
H21    H     0.71537   0.40829   0.23682   0.17700  Uiso   0.50
H22    H     0.77011   0.38787   0.26017   0.17700  Uiso   0.50
H23    H     0.42409   0.70462   0.26825   0.17700  Uiso   0.50
H24    H     0.40795   0.76341   0.28451   0.17700  Uiso   0.50
H25    H     0.38751   0.74005   0.22977   0.17700  Uiso   0.50
H26    H     0.70423   0.26931   0.42478   0.17700  Uiso   0.50
H27    H     0.76315   0.28489   0.40829   0.17700  Uiso   0.50
H28    H     0.73918   0.23021   0.38841   0.17700  Uiso   0.50
H29    H     0.70448   0.73095   0.57542   0.17700  Uiso   0.50
H30    H     0.76335   0.71526   0.59190   0.17700  Uiso   0.50
H31    H     0.73949   0.76998   0.61180   0.17700  Uiso   0.50
H32    H     0.29536   0.26919   0.57551   0.17700  Uiso   0.50
H33    H     0.23649   0.28490   0.59198   0.17700  Uiso   0.50
H34    H     0.26034   0.23018   0.61191   0.17700  Uiso   0.50
H35    H     0.57542   0.26928   0.29550   0.17700  Uiso   0.50
H36    H     0.59186   0.28505   0.23664   0.17700  Uiso   0.50
H37    H     0.61183   0.23032   0.26043   0.17700  Uiso   0.50
H38    H     0.57518   0.73093   0.70423   0.17700  Uiso   0.50
H39    H     0.59167   0.71542   0.76317   0.17700  Uiso   0.50
H40    H     0.61151   0.77009   0.73915   0.17700  Uiso   0.50
H41    H     0.42464   0.26916   0.70434   0.17700  Uiso   0.50
H42    H     0.40815   0.28474   0.76327   0.17700  Uiso   0.50
H43    H     0.38827   0.23006   0.73929   0.17700  Uiso   0.50
H44    H     0.29548   0.42425   0.73175   0.17700  Uiso   0.50
H45    H     0.23668   0.40814   0.71548   0.17700  Uiso   0.50
H46    H     0.26001   0.38771   0.77023   0.17700  Uiso   0.50
H47    H     0.70444   0.57597   0.73176   0.17700  Uiso   0.50
H48    H     0.76322   0.59210   0.71548   0.17700  Uiso   0.50
H49    H     0.73988   0.61255   0.77021   0.17700  Uiso   0.50
H50    H     0.26907   0.70469   0.42454   0.17700  Uiso   0.50
H51    H     0.28477   0.76356   0.40806   0.17700  Uiso   0.50
H52    H     0.23004   0.73970   0.38815   0.17700  Uiso   0.50
H53    H     0.73078   0.42460   0.70458   0.17700  Uiso   0.50
H54    H     0.71501   0.40817   0.76344   0.17700  Uiso   0.50
H55    H     0.76975   0.38822   0.73965   0.17700  Uiso   0.50
H56    H     0.26842   0.57575   0.70415   0.17700  Uiso   0.50
H57    H     0.28455   0.59187   0.76301   0.17700  Uiso   0.50
H58    H     0.22982   0.61221   0.73957   0.17700  Uiso   0.50
H59    H     0.73096   0.57545   0.29577   0.17700  Uiso   0.50
H60    H     0.71541   0.59192   0.23683   0.17700  Uiso   0.50
H61    H     0.77007   0.61182   0.26083   0.17700  Uiso   0.50
H62    H     0.57585   0.70456   0.26822   0.17700  Uiso   0.50
H63    H     0.59193   0.76337   0.28449   0.17700  Uiso   0.50
H64    H     0.61241   0.74003   0.22976   0.17700  Uiso   0.50
H65    H     0.42444   0.70422   0.73156   0.17700  Uiso   0.50
H66    H     0.40830   0.76309   0.71548   0.17700  Uiso   0.50
H67    H     0.38800   0.73961   0.77021   0.17700  Uiso   0.50
H68    H     0.23704   0.71559   0.59177   0.17700  Uiso   0.50
H69    H     0.26051   0.77032   0.61209   0.17700  Uiso   0.50
H70    H     0.29536   0.26931   0.42459   0.17700  Uiso   0.50
H71    H     0.23649   0.28504   0.40815   0.17700  Uiso   0.50
H72    H     0.26032   0.23032   0.38819   0.17700  Uiso   0.50
Zr73   Zr    0.49993   0.07988   0.49995   0.08287  Uani   1.00
Zr74   Zr    0.49991   0.92032   0.49986   0.08287  Uani   1.00
Zr75   Zr    0.50000   0.50011   0.07981   0.08287  Uani   1.00
Zr76   Zr    0.49998   0.50008   0.92023   0.08287  Uani   1.00
Zr77   Zr    0.07975   0.50011   0.50013   0.08287  Uani   1.00
Zr78   Zr    0.92018   0.50016   0.50015   0.08287  Uani   1.00
Zr79   Zr    0.43938   0.00015   0.43937   0.08687  Uani   1.00
Zr80   Zr    0.56045   0.00014   0.43938   0.08687  Uani   1.00
Zr81   Zr    0.56044   0.00007   0.56045   0.08687  Uani   1.00
Zr82   Zr    0.43937   0.00009   0.56043   0.08687  Uani   1.00
Zr83   Zr    0.43938   0.43967   0.00004   0.08687  Uani   1.00
Zr84   Zr    0.43955   0.56072   0.00002   0.08687  Uani   1.00
Zr85   Zr    0.56059   0.56056   0.00000   0.08687  Uani   1.00
Zr86   Zr    0.56045   0.43951   0.00003   0.08687  Uani   1.00
Zr87   Zr   -0.00006   0.43967   0.43955   0.08687  Uani   1.00
Zr88   Zr   -0.00006   0.43956   0.56062   0.08687  Uani   1.00
Zr89   Zr   -0.00002   0.56062   0.56072   0.08687  Uani   1.00
Zr90   Zr   -0.00003   0.56072   0.43966   0.08687  Uani   1.00
O91    O     0.54333   0.12165   0.54328   0.08933  Uani   1.00
O92    O     0.58523   0.06697   0.58542   0.10233  Uani   1.00
C93    C     0.57450   0.11030   0.57456   0.09600  Uani   1.00
C94    C     0.59928   0.15048   0.59930   0.08300  Uani   1.00
C95    C     0.58915   0.19773   0.58690   0.12633  Uani   1.00
H96    H     0.56365   0.20557   0.55953   0.15200  Uiso   1.00
C97    C     0.61169   0.23575   0.60944   0.14000  Uani   1.00
H98    H     0.60303   0.27147   0.59891   0.16800  Uiso   1.00
C99    C     0.64506   0.22800   0.64521   0.09133  Uani   1.00
C100   C     0.65550   0.18109   0.65788   0.11267  Uani   1.00
H101   H     0.68117   0.17412   0.68531   0.13500  Uiso   1.00
C102   C     0.63294   0.14281   0.63523   0.10567  Uani   1.00
H103   H     0.64184   0.10722   0.64593   0.12700  Uiso   1.00
C104   C     0.66899   0.26936   0.66880   0.08667  Uani   1.00
O105   O     0.45665   0.87852   0.54330   0.08933  Uani   1.00
O106   O     0.41453   0.93316   0.58528   0.10233  Uani   1.00
C107   C     0.42541   0.88985   0.57453   0.09600  Uani   1.00
C108   C     0.40078   0.84966   0.59939   0.08300  Uani   1.00
C109   C     0.41319   0.80241   0.58925   0.12633  Uani   1.00
H110   H     0.44051   0.79458   0.56370   0.15200  Uiso   1.00
C111   C     0.39072   0.76438   0.61184   0.14000  Uani   1.00
H112   H     0.40122   0.72866   0.60316   0.16800  Uiso   1.00
C113   C     0.35501   0.77212   0.64529   0.09133  Uani   1.00
C114   C     0.34235   0.81904   0.65575   0.11267  Uani   1.00
H115   H     0.31495   0.82600   0.68146   0.13500  Uiso   1.00
C116   C     0.36493   0.85732   0.63313   0.10567  Uani   1.00
H117   H     0.35423   0.89290   0.64205   0.12700  Uiso   1.00
C118   C     0.33134   0.73077   0.66912   0.08667  Uani   1.00
O119   O     0.45657   0.12170   0.45665   0.08933  Uani   1.00
O120   O     0.41450   0.06709   0.41459   0.10233  Uani   1.00
C121   C     0.42531   0.11040   0.42543   0.09600  Uani   1.00
C122   C     0.40056   0.15063   0.40076   0.08300  Uani   1.00
C123   C     0.41188   0.19787   0.41212   0.12633  Uani   1.00
H124   H     0.43834   0.20567   0.43857   0.15200  Uiso   1.00
C125   C     0.38937   0.23595   0.38965   0.14000  Uani   1.00
H126   H     0.39901   0.27166   0.39930   0.16800  Uiso   1.00
C127   C     0.35476   0.22826   0.35506   0.09133  Uani   1.00
C128   C     0.34315   0.18136   0.34342   0.11267  Uani   1.00
H129   H     0.31658   0.17444   0.31684   0.13500  Uiso   1.00
C130   C     0.36573   0.14303   0.36595   0.10567  Uani   1.00
H131   H     0.35588   0.10745   0.35608   0.12700  Uiso   1.00
C132   C     0.33110   0.26971   0.33129   0.08667  Uani   1.00
O133   O     0.54325   0.87855   0.45647   0.08933  Uani   1.00
O134   O     0.58530   0.93323   0.41447   0.10233  Uani   1.00
C135   C     0.57449   0.88991   0.42524   0.09600  Uani   1.00
C136   C     0.59924   0.84974   0.40046   0.08300  Uani   1.00
C137   C     0.58801   0.80245   0.41176   0.12633  Uani   1.00
H138   H     0.56160   0.79458   0.43823   0.15200  Uiso   1.00
C139   C     0.61057   0.76444   0.38922   0.14000  Uani   1.00
H140   H     0.60102   0.72870   0.39885   0.16800  Uiso   1.00
C141   C     0.64512   0.77225   0.35460   0.09133  Uani   1.00
C142   C     0.65663   0.81919   0.34300   0.11267  Uani   1.00
H143   H     0.68318   0.82619   0.31642   0.13500  Uiso   1.00
C144   C     0.63401   0.85745   0.36561   0.10567  Uani   1.00
H145   H     0.64378   0.89306   0.35578   0.12700  Uiso   1.00
C146   C     0.66896   0.73095   0.33092   0.08667  Uani   1.00
O147   O     0.54343   0.54342   0.12159   0.08933  Uani   1.00
O148   O     0.58540   0.58550   0.06691   0.10233  Uani   1.00
C149   C     0.57464   0.57467   0.11024   0.09600  Uani   1.00
C150   C     0.59943   0.59939   0.15042   0.08300  Uani   1.00
C151   C     0.58932   0.58697   0.19767   0.12633  Uani   1.00
H152   H     0.56384   0.55959   0.20551   0.15200  Uiso   1.00
C153   C     0.61185   0.60951   0.23570   0.14000  Uani   1.00
H154   H     0.60321   0.59897   0.27141   0.16800  Uiso   1.00
C155   C     0.64521   0.64530   0.22795   0.09133  Uani   1.00
C156   C     0.65563   0.65798   0.18103   0.11267  Uani   1.00
H157   H     0.68128   0.68544   0.17406   0.13500  Uiso   1.00
C158   C     0.63307   0.63534   0.14275   0.10567  Uani   1.00
H159   H     0.64196   0.64605   0.10717   0.12700  Uiso   1.00
C160   C     0.66911   0.66890   0.26930   0.08667  Uani   1.00
O161   O     0.54332   0.45669   0.87845   0.08933  Uani   1.00
O162   O     0.58526   0.41457   0.93312   0.10233  Uani   1.00
C163   C     0.57448   0.42540   0.88979   0.09600  Uani   1.00
C164   C     0.59921   0.40059   0.84962   0.08300  Uani   1.00
C165   C     0.58791   0.41182   0.80233   0.12633  Uani   1.00
H166   H     0.56145   0.43825   0.79447   0.15200  Uiso   1.00
C167   C     0.61044   0.38926   0.76432   0.14000  Uani   1.00
H168   H     0.60084   0.39884   0.72858   0.16800  Uiso   1.00
C169   C     0.64505   0.35469   0.77212   0.09133  Uani   1.00
C170   C     0.65662   0.34315   0.81906   0.11267  Uani   1.00
H171   H     0.68321   0.31661   0.82607   0.13500  Uiso   1.00
C172   C     0.63402   0.36578   0.85732   0.10567  Uani   1.00
H173   H     0.64385   0.35600   0.89293   0.12700  Uiso   1.00
C174   C     0.66886   0.33099   0.73082   0.08667  Uani   1.00
O175   O     0.45668   0.45673   0.12161   0.08933  Uani   1.00
O176   O     0.41443   0.41490   0.06696   0.10233  Uani   1.00
C177   C     0.42534   0.42561   0.11028   0.09600  Uani   1.00
C178   C     0.40060   0.40085   0.15047   0.08300  Uani   1.00
C179   C     0.41298   0.41102   0.19772   0.12633  Uani   1.00
H180   H     0.44032   0.43655   0.20555   0.15200  Uiso   1.00
C181   C     0.39045   0.38849   0.23575   0.14000  Uani   1.00
H182   H     0.40096   0.39717   0.27147   0.16800  Uiso   1.00
C183   C     0.35471   0.35508   0.22801   0.09133  Uani   1.00
C184   C     0.34206   0.34461   0.18110   0.11267  Uani   1.00
H185   H     0.31465   0.31891   0.17413   0.13500  Uiso   1.00
C186   C     0.36470   0.36716   0.14281   0.10567  Uani   1.00
H187   H     0.35402   0.35823   0.10723   0.12700  Uiso   1.00
C188   C     0.33114   0.33115   0.26937   0.08667  Uani   1.00
O189   O     0.45656   0.54337   0.87844   0.08933  Uani   1.00
O190   O     0.41471   0.58560   0.93310   0.10233  Uani   1.00
C191   C     0.42540   0.57467   0.88978   0.09600  Uani   1.00
C192   C     0.40058   0.59935   0.84959   0.08300  Uani   1.00
C193   C     0.41081   0.58701   0.80234   0.12633  Uani   1.00
H194   H     0.43641   0.55974   0.79451   0.15200  Uiso   1.00
C195   C     0.38824   0.60950   0.76431   0.14000  Uani   1.00
H196   H     0.39700   0.59905   0.72859   0.16800  Uiso   1.00
C197   C     0.35474   0.64515   0.77204   0.09133  Uani   1.00
C198   C     0.34420   0.65775   0.81896   0.11267  Uani   1.00
H199   H     0.31844   0.68511   0.82592   0.13500  Uiso   1.00
C200   C     0.36679   0.63515   0.85724   0.10567  Uani   1.00
H201   H     0.35781   0.64579   0.89283   0.12700  Uiso   1.00
C202   C     0.33091   0.66882   0.73068   0.08667  Uani   1.00
O203   O     0.12155   0.54352   0.54342   0.08933  Uani   1.00
O204   O     0.06691   0.58546   0.58558   0.10233  Uani   1.00
C205   C     0.11022   0.57473   0.57467   0.09600  Uani   1.00
C206   C     0.15042   0.59956   0.59932   0.08300  Uani   1.00
C207   C     0.19767   0.58940   0.58691   0.12633  Uani   1.00
H208   H     0.20548   0.56384   0.55959   0.15200  Uiso   1.00
C209   C     0.23571   0.61197   0.60937   0.14000  Uani   1.00
H210   H     0.27142   0.60327   0.59887   0.16800  Uiso   1.00
C211   C     0.22798   0.64542   0.64507   0.09133  Uani   1.00
C212   C     0.18108   0.65591   0.65774   0.11267  Uani   1.00
H213   H     0.17413   0.68163   0.68514   0.13500  Uiso   1.00
C214   C     0.14278   0.63331   0.63517   0.10567  Uani   1.00
H215   H     0.10721   0.64225   0.64587   0.12700  Uiso   1.00
C216   C     0.26936   0.66924   0.66873   0.08667  Uani   1.00
O217   O     0.87840   0.54355   0.45682   0.08933  Uani   1.00
O218   O     0.93305   0.58562   0.41482   0.10233  Uani   1.00
C219   C     0.88973   0.57480   0.42562   0.09600  Uani   1.00
C220   C     0.84953   0.59956   0.40090   0.08300  Uani   1.00
C221   C     0.80227   0.58827   0.41224   0.12633  Uani   1.00
H222   H     0.79445   0.56183   0.43871   0.15200  Uiso   1.00
C223   C     0.76422   0.61076   0.38972   0.14000  Uani   1.00
H224   H     0.72850   0.60113   0.39936   0.16800  Uiso   1.00
C225   C     0.77193   0.64533   0.35510   0.09133  Uani   1.00
C226   C     0.81885   0.65692   0.34349   0.11267  Uani   1.00
H227   H     0.82579   0.68346   0.31688   0.13500  Uiso   1.00
C228   C     0.85716   0.63435   0.36607   0.10567  Uani   1.00
H229   H     0.89274   0.64418   0.35621   0.12700  Uiso   1.00
C230   C     0.73051   0.66898   0.33128   0.08667  Uani   1.00
O231   O     0.12152   0.45677   0.45674   0.08933  Uani   1.00
O232   O     0.06684   0.41482   0.41464   0.10233  Uani   1.00
C233   C     0.11017   0.42560   0.42546   0.09600  Uani   1.00
C234   C     0.15034   0.40087   0.40065   0.08300  Uani   1.00
C235   C     0.19762   0.41210   0.41194   0.12633  Uani   1.00
H236   H     0.20549   0.43850   0.43843   0.15200  Uiso   1.00
C237   C     0.23563   0.38958   0.38937   0.14000  Uani   1.00
H238   H     0.27138   0.39913   0.39899   0.16800  Uiso   1.00
C239   C     0.22782   0.35505   0.35472   0.09133  Uani   1.00
C240   C     0.18088   0.34353   0.34313   0.11267  Uani   1.00
H241   H     0.17388   0.31700   0.31652   0.13500  Uiso   1.00
C242   C     0.14263   0.36613   0.36577   0.10567  Uani   1.00
H243   H     0.10702   0.35635   0.35595   0.12700  Uiso   1.00
C244   C     0.26912   0.33124   0.33101   0.08667  Uani   1.00
O245   O     0.87838   0.45682   0.54348   0.08933  Uani   1.00
O246   O     0.93301   0.41472   0.58548   0.10233  Uani   1.00
C247   C     0.88969   0.42556   0.57469   0.09600  Uani   1.00
C248   C     0.84947   0.40084   0.59942   0.08300  Uani   1.00
C249   C     0.80222   0.41214   0.58806   0.12633  Uani   1.00
H250   H     0.79442   0.43856   0.56157   0.15200  Uiso   1.00
C251   C     0.76416   0.38965   0.61055   0.14000  Uani   1.00
H252   H     0.72844   0.39925   0.60087   0.16800  Uiso   1.00
C253   C     0.77185   0.35509   0.64519   0.09133  Uani   1.00
C254   C     0.81876   0.34351   0.65684   0.11267  Uani   1.00
H255   H     0.82569   0.31695   0.68344   0.13500  Uiso   1.00
C256   C     0.85709   0.36607   0.63428   0.10567  Uani   1.00
H257   H     0.89267   0.35624   0.64416   0.12700  Uiso   1.00
C258   C     0.73041   0.33130   0.66885   0.08667  Uani   1.00
O259   O     0.12154   0.54346   0.45679   0.08933  Uani   1.00
O260   O     0.06690   0.58558   0.41481   0.10233  Uani   1.00
C261   C     0.11022   0.57473   0.42560   0.09600  Uani   1.00
C262   C     0.15043   0.59947   0.40087   0.08300  Uani   1.00
C263   C     0.19768   0.58815   0.41219   0.12633  Uani   1.00
H264   H     0.20550   0.56170   0.43864   0.15200  Uiso   1.00
C265   C     0.23574   0.61064   0.38967   0.14000  Uani   1.00
H266   H     0.27146   0.60100   0.39929   0.16800  Uiso   1.00
C267   C     0.22802   0.64523   0.35506   0.09133  Uani   1.00
C268   C     0.18111   0.65685   0.34347   0.11267  Uani   1.00
H269   H     0.17416   0.68341   0.31689   0.13500  Uiso   1.00
C270   C     0.14280   0.63429   0.36606   0.10567  Uani   1.00
H271   H     0.10721   0.64413   0.35622   0.12700  Uiso   1.00
C272   C     0.26944   0.66891   0.33127   0.08667  Uani   1.00
O273   O     0.87837   0.45679   0.45681   0.08933  Uani   1.00
O274   O     0.93302   0.41490   0.41462   0.10233  Uani   1.00
C275   C     0.88970   0.42563   0.42551   0.09600  Uani   1.00
C276   C     0.84951   0.40086   0.40078   0.08300  Uani   1.00
C277   C     0.80226   0.41100   0.41318   0.12633  Uani   1.00
H278   H     0.79443   0.43650   0.44055   0.15200  Uiso   1.00
C279   C     0.76423   0.38846   0.39066   0.14000  Uani   1.00
H280   H     0.72851   0.39712   0.40118   0.16800  Uiso   1.00
C281   C     0.77198   0.35508   0.35489   0.09133  Uani   1.00
C282   C     0.81889   0.34464   0.34221   0.11267  Uani   1.00
H283   H     0.82586   0.31896   0.31478   0.13500  Uiso   1.00
C284   C     0.85717   0.36720   0.36485   0.10567  Uani   1.00
H285   H     0.89275   0.35829   0.35415   0.12700  Uiso   1.00
C286   C     0.73063   0.33115   0.33131   0.08667  Uani   1.00
O287   O     0.12152   0.45674   0.54350   0.08933  Uani   1.00
O288   O     0.06685   0.41470   0.58551   0.10233  Uani   1.00
C289   C     0.11017   0.42551   0.57473   0.09600  Uani   1.00
C290   C     0.15035   0.40075   0.59951   0.08300  Uani   1.00
C291   C     0.19763   0.41196   0.58819   0.12633  Uani   1.00
H292   H     0.20550   0.43835   0.56169   0.15200  Uiso   1.00
C293   C     0.23564   0.38942   0.61075   0.14000  Uani   1.00
H294   H     0.27138   0.39895   0.60110   0.16800  Uiso   1.00
C295   C     0.22784   0.35491   0.64541   0.09133  Uani   1.00
C296   C     0.18089   0.34341   0.65702   0.11267  Uani   1.00
H297   H     0.17389   0.31689   0.68363   0.13500  Uiso   1.00
C298   C     0.14264   0.36602   0.63439   0.10567  Uani   1.00
H299   H     0.10703   0.35626   0.64424   0.12700  Uiso   1.00
C300   C     0.26914   0.33110   0.66911   0.08667  Uani   1.00
O301   O     0.87840   0.54350   0.54353   0.08933  Uani   1.00
O302   O     0.93307   0.58548   0.58561   0.10233  Uani   1.00
C303   C     0.88975   0.57470   0.57479   0.09600  Uani   1.00
C304   C     0.84957   0.59945   0.59956   0.08300  Uani   1.00
C305   C     0.80229   0.58823   0.58821   0.12633  Uani   1.00
H306   H     0.79444   0.56184   0.56171   0.15200  Uiso   1.00
C307   C     0.76427   0.61078   0.61074   0.14000  Uani   1.00
H308   H     0.72853   0.60124   0.60107   0.16800  Uiso   1.00
C309   C     0.77205   0.64530   0.64539   0.09133  Uani   1.00
C310   C     0.81899   0.65681   0.65703   0.11267  Uani   1.00
H311   H     0.82597   0.68334   0.68364   0.13500  Uiso   1.00
C312   C     0.85726   0.63420   0.63443   0.10567  Uani   1.00
H313   H     0.89286   0.64396   0.64429   0.12700  Uiso   1.00
C314   C     0.73073   0.66910   0.66906   0.08667  Uani   1.00
O315   O     0.54329   0.54348   0.87843   0.08933  Uani   1.00
O316   O     0.58551   0.58535   0.93308   0.10233  Uani   1.00
C317   C     0.57460   0.57463   0.88977   0.09600  Uani   1.00
C318   C     0.59930   0.59943   0.84958   0.08300  Uani   1.00
C319   C     0.58688   0.58930   0.80233   0.12633  Uani   1.00
H320   H     0.55952   0.56379   0.79450   0.15200  Uiso   1.00
C321   C     0.60937   0.61187   0.76430   0.14000  Uani   1.00
H322   H     0.59883   0.60322   0.72858   0.16800  Uiso   1.00
C323   C     0.64512   0.64527   0.77204   0.09133  Uani   1.00
C324   C     0.65782   0.65569   0.81895   0.11267  Uani   1.00
H325   H     0.68525   0.68138   0.82591   0.13500  Uiso   1.00
C326   C     0.63522   0.63310   0.85723   0.10567  Uani   1.00
H327   H     0.64593   0.64201   0.89281   0.12700  Uiso   1.00
C328   C     0.66869   0.66919   0.73068   0.08667  Uani   1.00
O329   O     0.45661   0.54345   0.12160   0.08933  Uani   1.00
O330   O     0.41475   0.58565   0.06693   0.10233  Uani   1.00
C331   C     0.42546   0.57475   0.11025   0.09600  Uani   1.00
C332   C     0.40065   0.59946   0.15043   0.08300  Uani   1.00
C333   C     0.41074   0.58702   0.19768   0.12633  Uani   1.00
H334   H     0.43622   0.55964   0.20552   0.15200  Uiso   1.00
C335   C     0.38816   0.60952   0.23571   0.14000  Uani   1.00
H336   H     0.39678   0.59897   0.27143   0.16800  Uiso   1.00
C337   C     0.35479   0.64530   0.22795   0.09133  Uani   1.00
C338   C     0.34440   0.65801   0.18104   0.11267  Uani   1.00
H339   H     0.31874   0.68545   0.17407   0.13500  Uiso   1.00
C340   C     0.36700   0.63539   0.14277   0.10567  Uani   1.00
H341   H     0.35812   0.64612   0.10718   0.12700  Uiso   1.00
C342   C     0.33086   0.66888   0.26930   0.08667  Uani   1.00
O343   O     0.45666   0.45668   0.87846   0.08933  Uani   1.00
O344   O     0.41444   0.41485   0.93313   0.10233  Uani   1.00
C345   C     0.42534   0.42554   0.88981   0.09600  Uani   1.00
C346   C     0.40061   0.40075   0.84963   0.08300  Uani   1.00
C347   C     0.41301   0.41088   0.80237   0.12633  Uani   1.00
H348   H     0.44036   0.43640   0.79454   0.15200  Uiso   1.00
C349   C     0.39049   0.38833   0.76435   0.14000  Uani   1.00
H350   H     0.40101   0.39698   0.72863   0.16800  Uiso   1.00
C351   C     0.35474   0.35493   0.77210   0.09133  Uani   1.00
C352   C     0.34207   0.34450   0.81902   0.11267  Uani   1.00
H353   H     0.31465   0.31881   0.82599   0.13500  Uiso   1.00
C354   C     0.36470   0.36707   0.85729   0.10567  Uani   1.00
H355   H     0.35401   0.35816   0.89288   0.12700  Uiso   1.00
C356   C     0.33116   0.33099   0.73075   0.08667  Uani   1.00
O357   O     0.54336   0.45676   0.12160   0.08933  Uani   1.00
O358   O     0.58536   0.41469   0.06694   0.10233  Uani   1.00
C359   C     0.57459   0.42552   0.11026   0.09600  Uani   1.00
C360   C     0.59939   0.40081   0.15045   0.08300  Uani   1.00
C361   C     0.58813   0.41210   0.19772   0.12633  Uani   1.00
H362   H     0.56166   0.43852   0.20558   0.15200  Uiso   1.00
C363   C     0.61069   0.38959   0.23575   0.14000  Uani   1.00
H364   H     0.60109   0.39918   0.27148   0.16800  Uiso   1.00
C365   C     0.64531   0.35503   0.22796   0.09133  Uani   1.00
C366   C     0.65688   0.34346   0.18102   0.11267  Uani   1.00
H367   H     0.68346   0.31690   0.17403   0.13500  Uiso   1.00
C368   C     0.63424   0.36603   0.14275   0.10567  Uani   1.00
H369   H     0.64404   0.35622   0.10715   0.12700  Uiso   1.00
C370   C     0.66900   0.33123   0.26927   0.08667  Uani   1.00
O371   O     0.54325   0.12169   0.45661   0.08933  Uani   1.00
O372   O     0.58529   0.06708   0.41454   0.10233  Uani   1.00
C373   C     0.57447   0.11039   0.42537   0.09600  Uani   1.00
C374   C     0.59919   0.15061   0.40065   0.08300  Uani   1.00
C375   C     0.58790   0.19786   0.41204   0.12633  Uani   1.00
H376   H     0.56148   0.20565   0.43854   0.15200  Uiso   1.00
C377   C     0.61039   0.23593   0.38955   0.14000  Uani   1.00
H378   H     0.60079   0.27164   0.39925   0.16800  Uiso   1.00
C379   C     0.64494   0.22825   0.35490   0.09133  Uani   1.00
C380   C     0.65651   0.18135   0.34322   0.11267  Uani   1.00
H381   H     0.68305   0.17443   0.31662   0.13500  Uiso   1.00
C382   C     0.63395   0.14301   0.36578   0.10567  Uani   1.00
H383   H     0.64377   0.10744   0.35588   0.12700  Uiso   1.00
C384   C     0.66870   0.26970   0.33125   0.08667  Uani   1.00
O385   O     0.54329   0.87851   0.54316   0.08933  Uani   1.00
O386   O     0.58531   0.93313   0.58526   0.10233  Uani   1.00
C387   C     0.57451   0.88982   0.57441   0.09600  Uani   1.00
C388   C     0.59925   0.84961   0.59912   0.08300  Uani   1.00
C389   C     0.58790   0.80235   0.58784   0.12633  Uani   1.00
H390   H     0.56141   0.79454   0.56142   0.15200  Uiso   1.00
C391   C     0.61040   0.76430   0.61034   0.14000  Uani   1.00
H392   H     0.60073   0.72858   0.60075   0.16800  Uiso   1.00
C393   C     0.64503   0.77201   0.64491   0.09133  Uani   1.00
C394   C     0.65667   0.81892   0.65647   0.11267  Uani   1.00
H395   H     0.68326   0.82587   0.68303   0.13500  Uiso   1.00
C396   C     0.63410   0.85724   0.63390   0.10567  Uani   1.00
H397   H     0.64397   0.89282   0.64372   0.12700  Uiso   1.00
C398   C     0.66871   0.73059   0.66871   0.08667  Uani   1.00
O399   O     0.45659   0.12166   0.54332   0.08933  Uani   1.00
O400   O     0.41449   0.06700   0.58530   0.10233  Uani   1.00
C401   C     0.42532   0.11032   0.57451   0.09600  Uani   1.00
C402   C     0.40057   0.15053   0.59923   0.08300  Uani   1.00
C403   C     0.41188   0.19779   0.58790   0.12633  Uani   1.00
H404   H     0.43832   0.20561   0.56144   0.15200  Uiso   1.00
C405   C     0.38938   0.23584   0.61041   0.14000  Uani   1.00
H406   H     0.39901   0.27156   0.60078   0.16800  Uiso   1.00
C407   C     0.35479   0.22814   0.64501   0.09133  Uani   1.00
C408   C     0.34319   0.18122   0.65662   0.11267  Uani   1.00
H409   H     0.31663   0.17428   0.68321   0.13500  Uiso   1.00
C410   C     0.36576   0.14290   0.63405   0.10567  Uani   1.00
H411   H     0.35593   0.10732   0.64391   0.12700  Uiso   1.00
C412   C     0.33112   0.26956   0.66880   0.08667  Uani   1.00
O413   O     0.45653   0.87856   0.45650   0.08933  Uani   1.00
O414   O     0.41453   0.93324   0.41446   0.10233  Uani   1.00
C415   C     0.42532   0.88992   0.42525   0.09600  Uani   1.00
C416   C     0.40058   0.84974   0.40047   0.08300  Uani   1.00
C417   C     0.41185   0.80246   0.41174   0.12633  Uani   1.00
H418   H     0.43828   0.79460   0.43820   0.15200  Uiso   1.00
C419   C     0.38931   0.76444   0.38920   0.14000  Uani   1.00
H420   H     0.39889   0.72870   0.39881   0.16800  Uiso   1.00
C421   C     0.35474   0.77224   0.35460   0.09133  Uani   1.00
C422   C     0.34319   0.81918   0.34302   0.11267  Uani   1.00
H423   H     0.31662   0.82617   0.31645   0.13500  Uiso   1.00
C424   C     0.36579   0.85744   0.36564   0.10567  Uani   1.00
H425   H     0.35599   0.89305   0.35583   0.12700  Uiso   1.00
C426   C     0.33094   0.73093   0.33091   0.08667  Uani   1.00
O427   O     0.43660   0.04188   0.49992   0.11733  Uani   1.00
O428   O     0.56323   0.95834   0.49989   0.11733  Uani   1.00
O429   O     0.56325   0.04187   0.49994   0.11733  Uani   1.00
O430   O     0.43658   0.95834   0.49988   0.11733  Uani   1.00
O431   O     0.49991   0.43679   0.04180   0.11733  Uani   1.00
O432   O     0.50007   0.56341   0.95823   0.11733  Uani   1.00
O433   O     0.50008   0.56343   0.04179   0.11733  Uani   1.00
O434   O     0.49990   0.43678   0.95827   0.11733  Uani   1.00
O435   O     0.04172   0.50018   0.43682   0.11733  Uani   1.00
O436   O     0.95819   0.50010   0.56347   0.11733  Uani   1.00
O437   O     0.04174   0.50007   0.56346   0.11733  Uani   1.00
O438   O     0.95818   0.50021   0.43682   0.11733  Uani   1.00
O439   O     0.04171   0.43680   0.50008   0.11733  Uani   1.00
O440   O     0.95821   0.56347   0.50020   0.11733  Uani   1.00
O441   O     0.04174   0.56344   0.50019   0.11733  Uani   1.00
O442   O     0.95817   0.43683   0.50009   0.11733  Uani   1.00
O443   O     0.43667   0.50019   0.95826   0.11733  Uani   1.00
O444   O     0.56331   0.50004   0.04178   0.11733  Uani   1.00
O445   O     0.56331   0.50002   0.95824   0.11733  Uani   1.00
O446   O     0.43668   0.50020   0.04180   0.11733  Uani   1.00
O447   O     0.49991   0.04184   0.56326   0.11733  Uani   1.00
O448   O     0.49991   0.95838   0.43656   0.11733  Uani   1.00
O449   O     0.49992   0.04191   0.43661   0.11733  Uani   1.00
O450   O     0.49990   0.95831   0.56320   0.11733  Uani   1.00
O451   O     0.36514   0.00012   0.44352   0.10067  Uani   1.00
O452   O     0.63469   0.00014   0.44354   0.10067  Uani   1.00
O453   O     0.63468   0.00012   0.55628   0.10067  Uani   1.00
O454   O     0.36513   0.00007   0.55626   0.10067  Uani   1.00
O455   O     0.44345   0.36542   0.00007   0.10067  Uani   1.00
O456   O     0.44382   0.63495  -0.00002   0.10067  Uani   1.00
O457   O     0.55655   0.63481  -0.00009   0.10067  Uani   1.00
O458   O     0.55618   0.36527   0.00010   0.10067  Uani   1.00
O459   O    -0.00004   0.44386   0.36532   0.10067  Uani   1.00
O460   O    -0.00007   0.44363   0.63487   0.10067  Uani   1.00
O461   O     0.00000   0.55637   0.63496   0.10067  Uani   1.00
O462   O    -0.00004   0.55664   0.36541   0.10067  Uani   1.00
O463   O    -0.00007   0.36533   0.55638   0.10067  Uani   1.00
O464   O    -0.00001   0.63486   0.55665   0.10067  Uani   1.00
O465   O    -0.00000   0.63496   0.44389   0.10067  Uani   1.00
O466   O    -0.00010   0.36543   0.44367   0.10067  Uani   1.00
O467   O     0.36514   0.44391   0.00004   0.10067  Uani   1.00
O468   O     0.63469   0.44355  -0.00004   0.10067  Uani   1.00
O469   O     0.63482   0.55629   0.00008   0.10067  Uani   1.00
O470   O     0.36530   0.55668   0.00004   0.10067  Uani   1.00
O471   O     0.44351   0.00008   0.63467   0.10067  Uani   1.00
O472   O     0.44354   0.00022   0.36513   0.10067  Uani   1.00
O473   O     0.55630   0.00018   0.36514   0.10067  Uani   1.00
O474   O     0.55630  -0.00003   0.63469   0.10067  Uani   1.00
C475   C     0.64868   0.28977   0.71004   0.09567  Uani   1.00
C476   C     0.60477   0.26721   0.73076   0.11800  Uani   1.00
C477   C     0.35145   0.70992   0.71028   0.09567  Uani   1.00
C478   C     0.39542   0.73053   0.73282   0.11800  Uani   1.00
C479   C     0.35150   0.29014   0.29020   0.09567  Uani   1.00
C480   C     0.39550   0.26771   0.26957   0.11800  Uani   1.00
C481   C     0.64880   0.71016   0.28969   0.09567  Uani   1.00
C482   C     0.60489   0.73086   0.26711   0.11800  Uani   1.00
C483   C     0.71012   0.64856   0.29018   0.09567  Uani   1.00
C484   C     0.73257   0.60456   0.26958   0.11800  Uani   1.00
C485   C     0.70992   0.35148   0.71005   0.09567  Uani   1.00
C486   C     0.73229   0.39548   0.73076   0.11800  Uani   1.00
C487   C     0.28989   0.35144   0.28979   0.09567  Uani   1.00
C488   C     0.26917   0.39537   0.26725   0.11800  Uani   1.00
C489   C     0.28974   0.64872   0.70985   0.09567  Uani   1.00
C490   C     0.26720   0.60476   0.73047   0.11800  Uani   1.00
C491   C     0.29021   0.71039   0.64861   0.09567  Uani   1.00
C492   C     0.26960   0.73294   0.60465   0.11800  Uani   1.00
C493   C     0.71000   0.71018   0.35144   0.09567  Uani   1.00
C494   C     0.73235   0.73092   0.39543   0.11800  Uani   1.00
C495   C     0.28990   0.29019   0.35148   0.09567  Uani   1.00
C496   C     0.26918   0.26779   0.39547   0.11800  Uani   1.00
C497   C     0.71000   0.29021   0.64844   0.09567  Uani   1.00
C498   C     0.73244   0.26958   0.60445   0.11800  Uani   1.00
C499   C     0.28987   0.64850   0.29017   0.09567  Uani   1.00
C500   C     0.26746   0.60448   0.26957   0.11800  Uani   1.00
C501   C     0.71022   0.35144   0.29005   0.09567  Uani   1.00
C502   C     0.73276   0.39536   0.26933   0.11800  Uani   1.00
C503   C     0.28991   0.35129   0.71033   0.09567  Uani   1.00
C504   C     0.26919   0.39521   0.73288   0.11800  Uani   1.00
C505   C     0.70997   0.64892   0.71029   0.09567  Uani   1.00
C506   C     0.73071   0.60503   0.73287   0.11800  Uani   1.00
C507   C     0.64830   0.71018   0.70980   0.09567  Uani   1.00
C508   C     0.60429   0.73258   0.73041   0.11800  Uani   1.00
C509   C     0.35113   0.71015   0.28969   0.09567  Uani   1.00
C510   C     0.39503   0.73089   0.26712   0.11800  Uani   1.00
C511   C     0.35152   0.28999   0.70990   0.09567  Uani   1.00
C512   C     0.39552   0.26756   0.73052   0.11800  Uani   1.00
C513   C     0.64853   0.29017   0.29004   0.09567  Uani   1.00
C514   C     0.60454   0.26778   0.26932   0.11800  Uani   1.00
C515   C     0.70979   0.29013   0.35167   0.09567  Uani   1.00
C516   C     0.73041   0.26771   0.39567   0.11800  Uani   1.00
C517   C     0.70993   0.71013   0.64855   0.09567  Uani   1.00
C518   C     0.73065   0.73250   0.60455   0.11800  Uani   1.00
C519   C     0.28991   0.29004   0.64863   0.09567  Uani   1.00
C520   C     0.26919   0.26766   0.60464   0.11800  Uani   1.00
C521   C     0.28990   0.71013   0.35142   0.09567  Uani   1.00
C522   C     0.26752   0.73086   0.39541   0.11800  Uani   1.00
loop_
_atom_site_aniso_label
_atom_site_aniso_U_11
_atom_site_aniso_U_22
_atom_site_aniso_U_33
_atom_site_aniso_U_12
_atom_site_aniso_U_13
_atom_site_aniso_U_23
Zr73      0.08830   0.07200   0.08830   0.00000   0.00000   0.00000
Zr74      0.08830   0.07200   0.08830   0.00000   0.00000   0.00000
Zr75      0.08830   0.08830   0.07200   0.00000   0.00000   0.00000
Zr76      0.08830   0.08830   0.07200   0.00000   0.00000   0.00000
Zr77      0.07200   0.08830   0.08830   0.00000   0.00000   0.00000
Zr78      0.07200   0.08830   0.08830   0.00000   0.00000   0.00000
Zr79      0.09290   0.07480   0.09290   0.00000  -0.00810   0.00000
Zr80      0.09290   0.07480   0.09290   0.00000   0.00810   0.00000
Zr81      0.09290   0.07480   0.09290   0.00000  -0.00810   0.00000
Zr82      0.09290   0.07480   0.09290   0.00000   0.00810   0.00000
Zr83      0.09290   0.09290   0.07480  -0.00810   0.00000   0.00000
Zr84      0.09290   0.09290   0.07480   0.00810   0.00000   0.00000
Zr85      0.09290   0.09290   0.07480  -0.00810   0.00000   0.00000
Zr86      0.09290   0.09290   0.07480   0.00810   0.00000   0.00000
Zr87      0.07480   0.09290   0.09290   0.00000   0.00000  -0.00810
Zr88      0.07480   0.09290   0.09290   0.00000   0.00000   0.00810
Zr89      0.07480   0.09290   0.09290   0.00000   0.00000  -0.00810
Zr90      0.07480   0.09290   0.09290   0.00000   0.00000   0.00810
O91       0.09300   0.08200   0.09300  -0.00300  -0.01700  -0.00300
O92       0.11500   0.07700   0.11500  -0.00900  -0.03200  -0.00900
C93       0.10600   0.07600   0.10600  -0.03200   0.03000  -0.03200
C94       0.09500   0.05900   0.09500  -0.00800   0.00700  -0.00800
C95       0.14400   0.09100   0.14400  -0.01300  -0.03700  -0.01300
C97       0.17100   0.07800   0.17100  -0.02200  -0.06500  -0.02200
C99       0.09800   0.07800   0.09800  -0.00600   0.01000  -0.00600
C100      0.11000   0.11800   0.11000  -0.04400  -0.03600  -0.04400
C102      0.10500   0.10700   0.10500   0.01600  -0.03800   0.01600
C104      0.10400   0.05200   0.10400  -0.02000  -0.01800  -0.02000
O105      0.09300   0.08200   0.09300  -0.00300   0.01700   0.00300
O106      0.11500   0.07700   0.11500  -0.00900   0.03200   0.00900
C107      0.10600   0.07600   0.10600  -0.03200  -0.03000   0.03200
C108      0.09500   0.05900   0.09500  -0.00800  -0.00700   0.00800
C109      0.14400   0.09100   0.14400  -0.01300   0.03700   0.01300
C111      0.17100   0.07800   0.17100  -0.02200   0.06500   0.02200
C113      0.09800   0.07800   0.09800  -0.00600  -0.01000   0.00600
C114      0.11000   0.11800   0.11000  -0.04400   0.03600   0.04400
C116      0.10500   0.10700   0.10500   0.01600   0.03800  -0.01600
C118      0.10400   0.05200   0.10400  -0.02000   0.01800   0.02000
O119      0.09300   0.08200   0.09300   0.00300  -0.01700   0.00300
O120      0.11500   0.07700   0.11500   0.00900  -0.03200   0.00900
C121      0.10600   0.07600   0.10600   0.03200   0.03000   0.03200
C122      0.09500   0.05900   0.09500   0.00800   0.00700   0.00800
C123      0.14400   0.09100   0.14400   0.01300  -0.03700   0.01300
C125      0.17100   0.07800   0.17100   0.02200  -0.06500   0.02200
C127      0.09800   0.07800   0.09800   0.00600   0.01000   0.00600
C128      0.11000   0.11800   0.11000   0.04400  -0.03600   0.04400
C130      0.10500   0.10700   0.10500  -0.01600  -0.03800  -0.01600
C132      0.10400   0.05200   0.10400   0.02000  -0.01800   0.02000
O133      0.09300   0.08200   0.09300   0.00300   0.01700  -0.00300
O134      0.11500   0.07700   0.11500   0.00900   0.03200  -0.00900
C135      0.10600   0.07600   0.10600   0.03200  -0.03000  -0.03200
C136      0.09500   0.05900   0.09500   0.00800  -0.00700  -0.00800
C137      0.14400   0.09100   0.14400   0.01300   0.03700  -0.01300
C139      0.17100   0.07800   0.17100   0.02200   0.06500  -0.02200
C141      0.09800   0.07800   0.09800   0.00600  -0.01000  -0.00600
C142      0.11000   0.11800   0.11000   0.04400   0.03600  -0.04400
C144      0.10500   0.10700   0.10500  -0.01600   0.03800   0.01600
C146      0.10400   0.05200   0.10400   0.02000   0.01800  -0.02000
O147      0.09300   0.09300   0.08200  -0.01700  -0.00300  -0.00300
O148      0.11500   0.11500   0.07700  -0.03200  -0.00900  -0.00900
C149      0.10600   0.10600   0.07600   0.03000  -0.03200  -0.03200
C150      0.09500   0.09500   0.05900   0.00700  -0.00800  -0.00800
C151      0.14400   0.14400   0.09100  -0.03700  -0.01300  -0.01300
C153      0.17100   0.17100   0.07800  -0.06500  -0.02200  -0.02200
C155      0.09800   0.09800   0.07800   0.01000  -0.00600  -0.00600
C156      0.11000   0.11000   0.11800  -0.03600  -0.04400  -0.04400
C158      0.10500   0.10500   0.10700  -0.03800   0.01600   0.01600
C160      0.10400   0.10400   0.05200  -0.01800  -0.02000  -0.02000
O161      0.09300   0.09300   0.08200   0.01700   0.00300  -0.00300
O162      0.11500   0.11500   0.07700   0.03200   0.00900  -0.00900
C163      0.10600   0.10600   0.07600  -0.03000   0.03200  -0.03200
C164      0.09500   0.09500   0.05900  -0.00700   0.00800  -0.00800
C165      0.14400   0.14400   0.09100   0.03700   0.01300  -0.01300
C167      0.17100   0.17100   0.07800   0.06500   0.02200  -0.02200
C169      0.09800   0.09800   0.07800  -0.01000   0.00600  -0.00600
C170      0.11000   0.11000   0.11800   0.03600   0.04400  -0.04400
C172      0.10500   0.10500   0.10700   0.03800  -0.01600   0.01600
C174      0.10400   0.10400   0.05200   0.01800   0.02000  -0.02000
O175      0.09300   0.09300   0.08200  -0.01700   0.00300   0.00300
O176      0.11500   0.11500   0.07700  -0.03200   0.00900   0.00900
C177      0.10600   0.10600   0.07600   0.03000   0.03200   0.03200
C178      0.09500   0.09500   0.05900   0.00700   0.00800   0.00800
C179      0.14400   0.14400   0.09100  -0.03700   0.01300   0.01300
C181      0.17100   0.17100   0.07800  -0.06500   0.02200   0.02200
C183      0.09800   0.09800   0.07800   0.01000   0.00600   0.00600
C184      0.11000   0.11000   0.11800  -0.03600   0.04400   0.04400
C186      0.10500   0.10500   0.10700  -0.03800  -0.01600  -0.01600
C188      0.10400   0.10400   0.05200  -0.01800   0.02000   0.02000
O189      0.09300   0.09300   0.08200   0.01700  -0.00300   0.00300
O190      0.11500   0.11500   0.07700   0.03200  -0.00900   0.00900
C191      0.10600   0.10600   0.07600  -0.03000  -0.03200   0.03200
C192      0.09500   0.09500   0.05900  -0.00700  -0.00800   0.00800
C193      0.14400   0.14400   0.09100   0.03700  -0.01300   0.01300
C195      0.17100   0.17100   0.07800   0.06500  -0.02200   0.02200
C197      0.09800   0.09800   0.07800  -0.01000  -0.00600   0.00600
C198      0.11000   0.11000   0.11800   0.03600  -0.04400   0.04400
C200      0.10500   0.10500   0.10700   0.03800   0.01600  -0.01600
C202      0.10400   0.10400   0.05200   0.01800  -0.02000   0.02000
O203      0.08200   0.09300   0.09300  -0.00300  -0.00300  -0.01700
O204      0.07700   0.11500   0.11500  -0.00900  -0.00900  -0.03200
C205      0.07600   0.10600   0.10600  -0.03200  -0.03200   0.03000
C206      0.05900   0.09500   0.09500  -0.00800  -0.00800   0.00700
C207      0.09100   0.14400   0.14400  -0.01300  -0.01300  -0.03700
C209      0.07800   0.17100   0.17100  -0.02200  -0.02200  -0.06500
C211      0.07800   0.09800   0.09800  -0.00600  -0.00600   0.01000
C212      0.11800   0.11000   0.11000  -0.04400  -0.04400  -0.03600
C214      0.10700   0.10500   0.10500   0.01600   0.01600  -0.03800
C216      0.05200   0.10400   0.10400  -0.02000  -0.02000  -0.01800
O217      0.08200   0.09300   0.09300   0.00300  -0.00300   0.01700
O218      0.07700   0.11500   0.11500   0.00900  -0.00900   0.03200
C219      0.07600   0.10600   0.10600   0.03200  -0.03200  -0.03000
C220      0.05900   0.09500   0.09500   0.00800  -0.00800  -0.00700
C221      0.09100   0.14400   0.14400   0.01300  -0.01300   0.03700
C223      0.07800   0.17100   0.17100   0.02200  -0.02200   0.06500
C225      0.07800   0.09800   0.09800   0.00600  -0.00600  -0.01000
C226      0.11800   0.11000   0.11000   0.04400  -0.04400   0.03600
C228      0.10700   0.10500   0.10500  -0.01600   0.01600   0.03800
C230      0.05200   0.10400   0.10400   0.02000  -0.02000   0.01800
O231      0.08200   0.09300   0.09300   0.00300   0.00300  -0.01700
O232      0.07700   0.11500   0.11500   0.00900   0.00900  -0.03200
C233      0.07600   0.10600   0.10600   0.03200   0.03200   0.03000
C234      0.05900   0.09500   0.09500   0.00800   0.00800   0.00700
C235      0.09100   0.14400   0.14400   0.01300   0.01300  -0.03700
C237      0.07800   0.17100   0.17100   0.02200   0.02200  -0.06500
C239      0.07800   0.09800   0.09800   0.00600   0.00600   0.01000
C240      0.11800   0.11000   0.11000   0.04400   0.04400  -0.03600
C242      0.10700   0.10500   0.10500  -0.01600  -0.01600  -0.03800
C244      0.05200   0.10400   0.10400   0.02000   0.02000  -0.01800
O245      0.08200   0.09300   0.09300  -0.00300   0.00300   0.01700
O246      0.07700   0.11500   0.11500  -0.00900   0.00900   0.03200
C247      0.07600   0.10600   0.10600  -0.03200   0.03200  -0.03000
C248      0.05900   0.09500   0.09500  -0.00800   0.00800  -0.00700
C249      0.09100   0.14400   0.14400  -0.01300   0.01300   0.03700
C251      0.07800   0.17100   0.17100  -0.02200   0.02200   0.06500
C253      0.07800   0.09800   0.09800  -0.00600   0.00600  -0.01000
C254      0.11800   0.11000   0.11000  -0.04400   0.04400   0.03600
C256      0.10700   0.10500   0.10500   0.01600  -0.01600   0.03800
C258      0.05200   0.10400   0.10400  -0.02000   0.02000   0.01800
O259      0.08200   0.09300   0.09300  -0.00300   0.00300   0.01700
O260      0.07700   0.11500   0.11500  -0.00900   0.00900   0.03200
C261      0.07600   0.10600   0.10600  -0.03200   0.03200  -0.03000
C262      0.05900   0.09500   0.09500  -0.00800   0.00800  -0.00700
C263      0.09100   0.14400   0.14400  -0.01300   0.01300   0.03700
C265      0.07800   0.17100   0.17100  -0.02200   0.02200   0.06500
C267      0.07800   0.09800   0.09800  -0.00600   0.00600  -0.01000
C268      0.11800   0.11000   0.11000  -0.04400   0.04400   0.03600
C270      0.10700   0.10500   0.10500   0.01600  -0.01600   0.03800
C272      0.05200   0.10400   0.10400  -0.02000   0.02000   0.01800
O273      0.08200   0.09300   0.09300  -0.00300  -0.00300  -0.01700
O274      0.07700   0.11500   0.11500  -0.00900  -0.00900  -0.03200
C275      0.07600   0.10600   0.10600  -0.03200  -0.03200   0.03000
C276      0.05900   0.09500   0.09500  -0.00800  -0.00800   0.00700
C277      0.09100   0.14400   0.14400  -0.01300  -0.01300  -0.03700
C279      0.07800   0.17100   0.17100  -0.02200  -0.02200  -0.06500
C281      0.07800   0.09800   0.09800  -0.00600  -0.00600   0.01000
C282      0.11800   0.11000   0.11000  -0.04400  -0.04400  -0.03600
C284      0.10700   0.10500   0.10500   0.01600   0.01600  -0.03800
C286      0.05200   0.10400   0.10400  -0.02000  -0.02000  -0.01800
O287      0.08200   0.09300   0.09300   0.00300  -0.00300   0.01700
O288      0.07700   0.11500   0.11500   0.00900  -0.00900   0.03200
C289      0.07600   0.10600   0.10600   0.03200  -0.03200  -0.03000
C290      0.05900   0.09500   0.09500   0.00800  -0.00800  -0.00700
C291      0.09100   0.14400   0.14400   0.01300  -0.01300   0.03700
C293      0.07800   0.17100   0.17100   0.02200  -0.02200   0.06500
C295      0.07800   0.09800   0.09800   0.00600  -0.00600  -0.01000
C296      0.11800   0.11000   0.11000   0.04400  -0.04400   0.03600
C298      0.10700   0.10500   0.10500  -0.01600   0.01600   0.03800
C300      0.05200   0.10400   0.10400   0.02000  -0.02000   0.01800
O301      0.08200   0.09300   0.09300   0.00300   0.00300  -0.01700
O302      0.07700   0.11500   0.11500   0.00900   0.00900  -0.03200
C303      0.07600   0.10600   0.10600   0.03200   0.03200   0.03000
C304      0.05900   0.09500   0.09500   0.00800   0.00800   0.00700
C305      0.09100   0.14400   0.14400   0.01300   0.01300  -0.03700
C307      0.07800   0.17100   0.17100   0.02200   0.02200  -0.06500
C309      0.07800   0.09800   0.09800   0.00600   0.00600   0.01000
C310      0.11800   0.11000   0.11000   0.04400   0.04400  -0.03600
C312      0.10700   0.10500   0.10500  -0.01600  -0.01600  -0.03800
C314      0.05200   0.10400   0.10400   0.02000   0.02000  -0.01800
O315      0.09300   0.09300   0.08200  -0.01700   0.00300   0.00300
O316      0.11500   0.11500   0.07700  -0.03200   0.00900   0.00900
C317      0.10600   0.10600   0.07600   0.03000   0.03200   0.03200
C318      0.09500   0.09500   0.05900   0.00700   0.00800   0.00800
C319      0.14400   0.14400   0.09100  -0.03700   0.01300   0.01300
C321      0.17100   0.17100   0.07800  -0.06500   0.02200   0.02200
C323      0.09800   0.09800   0.07800   0.01000   0.00600   0.00600
C324      0.11000   0.11000   0.11800  -0.03600   0.04400   0.04400
C326      0.10500   0.10500   0.10700  -0.03800  -0.01600  -0.01600
C328      0.10400   0.10400   0.05200  -0.01800   0.02000   0.02000
O329      0.09300   0.09300   0.08200   0.01700   0.00300  -0.00300
O330      0.11500   0.11500   0.07700   0.03200   0.00900  -0.00900
C331      0.10600   0.10600   0.07600  -0.03000   0.03200  -0.03200
C332      0.09500   0.09500   0.05900  -0.00700   0.00800  -0.00800
C333      0.14400   0.14400   0.09100   0.03700   0.01300  -0.01300
C335      0.17100   0.17100   0.07800   0.06500   0.02200  -0.02200
C337      0.09800   0.09800   0.07800  -0.01000   0.00600  -0.00600
C338      0.11000   0.11000   0.11800   0.03600   0.04400  -0.04400
C340      0.10500   0.10500   0.10700   0.03800  -0.01600   0.01600
C342      0.10400   0.10400   0.05200   0.01800   0.02000  -0.02000
O343      0.09300   0.09300   0.08200  -0.01700  -0.00300  -0.00300
O344      0.11500   0.11500   0.07700  -0.03200  -0.00900  -0.00900
C345      0.10600   0.10600   0.07600   0.03000  -0.03200  -0.03200
C346      0.09500   0.09500   0.05900   0.00700  -0.00800  -0.00800
C347      0.14400   0.14400   0.09100  -0.03700  -0.01300  -0.01300
C349      0.17100   0.17100   0.07800  -0.06500  -0.02200  -0.02200
C351      0.09800   0.09800   0.07800   0.01000  -0.00600  -0.00600
C352      0.11000   0.11000   0.11800  -0.03600  -0.04400  -0.04400
C354      0.10500   0.10500   0.10700  -0.03800   0.01600   0.01600
C356      0.10400   0.10400   0.05200  -0.01800  -0.02000  -0.02000
O357      0.09300   0.09300   0.08200   0.01700  -0.00300   0.00300
O358      0.11500   0.11500   0.07700   0.03200  -0.00900   0.00900
C359      0.10600   0.10600   0.07600  -0.03000  -0.03200   0.03200
C360      0.09500   0.09500   0.05900  -0.00700  -0.00800   0.00800
C361      0.14400   0.14400   0.09100   0.03700  -0.01300   0.01300
C363      0.17100   0.17100   0.07800   0.06500  -0.02200   0.02200
C365      0.09800   0.09800   0.07800  -0.01000  -0.00600   0.00600
C366      0.11000   0.11000   0.11800   0.03600  -0.04400   0.04400
C368      0.10500   0.10500   0.10700   0.03800   0.01600  -0.01600
C370      0.10400   0.10400   0.05200   0.01800  -0.02000   0.02000
O371      0.09300   0.08200   0.09300  -0.00300   0.01700   0.00300
O372      0.11500   0.07700   0.11500  -0.00900   0.03200   0.00900
C373      0.10600   0.07600   0.10600  -0.03200  -0.03000   0.03200
C374      0.09500   0.05900   0.09500  -0.00800  -0.00700   0.00800
C375      0.14400   0.09100   0.14400  -0.01300   0.03700   0.01300
C377      0.17100   0.07800   0.17100  -0.02200   0.06500   0.02200
C379      0.09800   0.07800   0.09800  -0.00600  -0.01000   0.00600
C380      0.11000   0.11800   0.11000  -0.04400   0.03600   0.04400
C382      0.10500   0.10700   0.10500   0.01600   0.03800  -0.01600
C384      0.10400   0.05200   0.10400  -0.02000   0.01800   0.02000
O385      0.09300   0.08200   0.09300   0.00300  -0.01700   0.00300
O386      0.11500   0.07700   0.11500   0.00900  -0.03200   0.00900
C387      0.10600   0.07600   0.10600   0.03200   0.03000   0.03200
C388      0.09500   0.05900   0.09500   0.00800   0.00700   0.00800
C389      0.14400   0.09100   0.14400   0.01300  -0.03700   0.01300
C391      0.17100   0.07800   0.17100   0.02200  -0.06500   0.02200
C393      0.09800   0.07800   0.09800   0.00600   0.01000   0.00600
C394      0.11000   0.11800   0.11000   0.04400  -0.03600   0.04400
C396      0.10500   0.10700   0.10500  -0.01600  -0.03800  -0.01600
C398      0.10400   0.05200   0.10400   0.02000  -0.01800   0.02000
O399      0.09300   0.08200   0.09300   0.00300   0.01700  -0.00300
O400      0.11500   0.07700   0.11500   0.00900   0.03200  -0.00900
C401      0.10600   0.07600   0.10600   0.03200  -0.03000  -0.03200
C402      0.09500   0.05900   0.09500   0.00800  -0.00700  -0.00800
C403      0.14400   0.09100   0.14400   0.01300   0.03700  -0.01300
C405      0.17100   0.07800   0.17100   0.02200   0.06500  -0.02200
C407      0.09800   0.07800   0.09800   0.00600  -0.01000  -0.00600
C408      0.11000   0.11800   0.11000   0.04400   0.03600  -0.04400
C410      0.10500   0.10700   0.10500  -0.01600   0.03800   0.01600
C412      0.10400   0.05200   0.10400   0.02000   0.01800  -0.02000
O413      0.09300   0.08200   0.09300  -0.00300  -0.01700  -0.00300
O414      0.11500   0.07700   0.11500  -0.00900  -0.03200  -0.00900
C415      0.10600   0.07600   0.10600  -0.03200   0.03000  -0.03200
C416      0.09500   0.05900   0.09500  -0.00800   0.00700  -0.00800
C417      0.14400   0.09100   0.14400  -0.01300  -0.03700  -0.01300
C419      0.17100   0.07800   0.17100  -0.02200  -0.06500  -0.02200
C421      0.09800   0.07800   0.09800  -0.00600   0.01000  -0.00600
C422      0.11000   0.11800   0.11000  -0.04400  -0.03600  -0.04400
C424      0.10500   0.10700   0.10500   0.01600  -0.03800   0.01600
C426      0.10400   0.05200   0.10400  -0.02000  -0.01800  -0.02000
O427      0.16000   0.09600   0.09600  -0.04800   0.00000   0.00000
O428      0.16000   0.09600   0.09600  -0.04800   0.00000   0.00000
O429      0.16000   0.09600   0.09600   0.04800   0.00000   0.00000
O430      0.16000   0.09600   0.09600   0.04800   0.00000   0.00000
O431      0.09600   0.16000   0.09600   0.00000   0.00000  -0.04800
O432      0.09600   0.16000   0.09600   0.00000   0.00000  -0.04800
O433      0.09600   0.16000   0.09600   0.00000   0.00000   0.04800
O434      0.09600   0.16000   0.09600   0.00000   0.00000   0.04800
O435      0.09600   0.09600   0.16000   0.00000  -0.04800   0.00000
O436      0.09600   0.09600   0.16000   0.00000  -0.04800   0.00000
O437      0.09600   0.09600   0.16000   0.00000   0.04800   0.00000
O438      0.09600   0.09600   0.16000   0.00000   0.04800   0.00000
O439      0.09600   0.16000   0.09600  -0.04800   0.00000   0.00000
O440      0.09600   0.16000   0.09600  -0.04800   0.00000   0.00000
O441      0.09600   0.16000   0.09600   0.04800   0.00000   0.00000
O442      0.09600   0.16000   0.09600   0.04800   0.00000   0.00000
O443      0.16000   0.09600   0.09600   0.00000   0.04800   0.00000
O444      0.16000   0.09600   0.09600   0.00000   0.04800   0.00000
O445      0.16000   0.09600   0.09600   0.00000  -0.04800   0.00000
O446      0.16000   0.09600   0.09600   0.00000  -0.04800   0.00000
O447      0.09600   0.09600   0.16000   0.00000   0.00000   0.04800
O448      0.09600   0.09600   0.16000   0.00000   0.00000   0.04800
O449      0.09600   0.09600   0.16000   0.00000   0.00000  -0.04800
O450      0.09600   0.09600   0.16000   0.00000   0.00000  -0.04800
O451      0.10300   0.07400   0.12500   0.00000  -0.00100   0.00000
O452      0.10300   0.07400   0.12500   0.00000   0.00100   0.00000
O453      0.10300   0.07400   0.12500   0.00000  -0.00100   0.00000
O454      0.10300   0.07400   0.12500   0.00000   0.00100   0.00000
O455      0.12500   0.10300   0.07400  -0.00100   0.00000   0.00000
O456      0.12500   0.10300   0.07400   0.00100   0.00000   0.00000
O457      0.12500   0.10300   0.07400  -0.00100   0.00000   0.00000
O458      0.12500   0.10300   0.07400   0.00100   0.00000   0.00000
O459      0.07400   0.12500   0.10300   0.00000   0.00000  -0.00100
O460      0.07400   0.12500   0.10300   0.00000   0.00000   0.00100
O461      0.07400   0.12500   0.10300   0.00000   0.00000  -0.00100
O462      0.07400   0.12500   0.10300   0.00000   0.00000   0.00100
O463      0.07400   0.10300   0.12500   0.00000   0.00000   0.00100
O464      0.07400   0.10300   0.12500   0.00000   0.00000  -0.00100
O465      0.07400   0.10300   0.12500   0.00000   0.00000   0.00100
O466      0.07400   0.10300   0.12500   0.00000   0.00000  -0.00100
O467      0.10300   0.12500   0.07400  -0.00100   0.00000   0.00000
O468      0.10300   0.12500   0.07400   0.00100   0.00000   0.00000
O469      0.10300   0.12500   0.07400  -0.00100   0.00000   0.00000
O470      0.10300   0.12500   0.07400   0.00100   0.00000   0.00000
O471      0.12500   0.07400   0.10300   0.00000   0.00100   0.00000
O472      0.12500   0.07400   0.10300   0.00000  -0.00100   0.00000
O473      0.12500   0.07400   0.10300   0.00000   0.00100   0.00000
O474      0.12500   0.07400   0.10300   0.00000  -0.00100   0.00000
C475      0.11500   0.08600   0.08600   0.02000  -0.02000  -0.02600
C476      0.10400   0.12500   0.12500  -0.03400   0.03400  -0.01000
C477      0.11500   0.08600   0.08600   0.02000   0.02000   0.02600
C478      0.10400   0.12500   0.12500  -0.03400  -0.03400   0.01000
C479      0.11500   0.08600   0.08600  -0.02000  -0.02000   0.02600
C480      0.10400   0.12500   0.12500   0.03400   0.03400   0.01000
C481      0.11500   0.08600   0.08600  -0.02000   0.02000  -0.02600
C482      0.10400   0.12500   0.12500   0.03400  -0.03400  -0.01000
C483      0.08600   0.11500   0.08600  -0.02000  -0.02600   0.02000
C484      0.12500   0.10400   0.12500   0.03400  -0.01000  -0.03400
C485      0.08600   0.11500   0.08600   0.02000   0.02600   0.02000
C486      0.12500   0.10400   0.12500  -0.03400   0.01000  -0.03400
C487      0.08600   0.11500   0.08600  -0.02000   0.02600  -0.02000
C488      0.12500   0.10400   0.12500   0.03400   0.01000   0.03400
C489      0.08600   0.11500   0.08600   0.02000  -0.02600  -0.02000
C490      0.12500   0.10400   0.12500  -0.03400  -0.01000   0.03400
C491      0.08600   0.08600   0.11500  -0.02600   0.02000  -0.02000
C492      0.12500   0.12500   0.10400  -0.01000  -0.03400   0.03400
C493      0.08600   0.08600   0.11500   0.02600   0.02000   0.02000
C494      0.12500   0.12500   0.10400   0.01000  -0.03400  -0.03400
C495      0.08600   0.08600   0.11500   0.02600  -0.02000  -0.02000
C496      0.12500   0.12500   0.10400   0.01000   0.03400   0.03400
C497      0.08600   0.08600   0.11500  -0.02600  -0.02000   0.02000
C498      0.12500   0.12500   0.10400  -0.01000   0.03400  -0.03400
C499      0.08600   0.11500   0.08600   0.02000   0.02600   0.02000
C500      0.12500   0.10400   0.12500  -0.03400   0.01000  -0.03400
C501      0.08600   0.11500   0.08600   0.02000  -0.02600  -0.02000
C502      0.12500   0.10400   0.12500  -0.03400  -0.01000   0.03400
C503      0.08600   0.11500   0.08600  -0.02000  -0.02600   0.02000
C504      0.12500   0.10400   0.12500   0.03400  -0.01000  -0.03400
C505      0.08600   0.11500   0.08600  -0.02000   0.02600  -0.02000
C506      0.12500   0.10400   0.12500   0.03400   0.01000   0.03400
C507      0.11500   0.08600   0.08600  -0.02000  -0.02000   0.02600
C508      0.10400   0.12500   0.12500   0.03400   0.03400   0.01000
C509      0.11500   0.08600   0.08600   0.02000  -0.02000  -0.02600
C510      0.10400   0.12500   0.12500  -0.03400   0.03400  -0.01000
C511      0.11500   0.08600   0.08600  -0.02000   0.02000  -0.02600
C512      0.10400   0.12500   0.12500   0.03400  -0.03400  -0.01000
C513      0.11500   0.08600   0.08600   0.02000   0.02000   0.02600
C514      0.10400   0.12500   0.12500  -0.03400  -0.03400   0.01000
C515      0.08600   0.08600   0.11500  -0.02600   0.02000  -0.02000
C516      0.12500   0.12500   0.10400  -0.01000  -0.03400   0.03400
C517      0.08600   0.08600   0.11500   0.02600  -0.02000  -0.02000
C518      0.12500   0.12500   0.10400   0.01000   0.03400   0.03400
C519      0.08600   0.08600   0.11500   0.02600   0.02000   0.02000
C520      0.12500   0.12500   0.10400   0.01000  -0.03400  -0.03400
C521      0.08600   0.08600   0.11500  -0.02600  -0.02000   0.02000
C522      0.12500   0.12500   0.10400  -0.01000   0.03400  -0.03400
loop_
_geom_bond_atom_site_label_1
_geom_bond_atom_site_label_2
_geom_bond_distance
_geom_bond_site_symmetry_2
_ccdc_geom_bond_type
H1     C476    1.110   .     S
H2     C476    1.107   .     S
H3     C476    1.110   .     S
H4     C480    1.110   .     S
H5     C480    1.107   .     S
H6     C480    1.110   .     S
H7     C488    1.110   .     S
H8     C488    1.107   .     S
H9     C488    1.110   .     S
H10    C492    1.110   .     S
H11    C494    1.110   .     S
H12    C494    1.107   .     S
H13    C494    1.110   .     S
H14    C498    1.110   .     S
H15    C498    1.107   .     S
H16    C498    1.110   .     S
H17    C500    1.110   .     S
H18    C500    1.107   .     S
H19    C500    1.110   .     S
H20    C502    1.110   .     S
H21    C502    1.107   .     S
H22    C502    1.110   .     S
H23    C510    1.110   .     S
H24    C510    1.107   .     S
H25    C510    1.110   .     S
H26    C516    1.110   .     S
H27    C516    1.107   .     S
H28    C516    1.110   .     S
H29    C518    1.110   .     S
H30    C518    1.107   .     S
H31    C518    1.110   .     S
H32    C520    1.110   .     S
H33    C520    1.107   .     S
H34    C520    1.110   .     S
H35    C514    1.110   .     S
H36    C514    1.107   .     S
H37    C514    1.110   .     S
H38    C508    1.110   .     S
H39    C508    1.107   .     S
H40    C508    1.110   .     S
H41    C512    1.110   .     S
H42    C512    1.107   .     S
H43    C512    1.110   .     S
H44    C504    1.110   .     S
H45    C504    1.107   .     S
H46    C504    1.110   .     S
H47    C506    1.110   .     S
H48    C506    1.107   .     S
H49    C506    1.110   .     S
H50    C522    1.110   .     S
H51    C522    1.107   .     S
H52    C522    1.110   .     S
H53    C486    1.110   .     S
H54    C486    1.107   .     S
H55    C486    1.110   .     S
H56    C490    1.110   .     S
H57    C490    1.107   .     S
H58    C490    1.110   .     S
H59    C484    1.110   .     S
H60    C484    1.107   .     S
H61    C484    1.110   .     S
H62    C482    1.110   .     S
H63    C482    1.107   .     S
H64    C482    1.110   .     S
H65    C478    1.110   .     S
H66    C478    1.107   .     S
H67    C478    1.110   .     S
H68    C492    1.107   .     S
H69    C492    1.110   .     S
H70    C496    1.110   .     S
H71    C496    1.107   .     S
H72    C496    1.110   .     S
Zr73   O91     2.102   .     S
Zr73   O119    2.102   .     S
Zr73   O371    2.102   .     S
Zr73   O399    2.102   .     S
Zr73   O427    2.092   .     S
Zr73   O429    2.092   .     S
Zr73   O447    2.092   .     S
Zr73   O449    2.092   .     S
Zr74   O105    2.102   .     S
Zr74   O133    2.102   .     S
Zr74   O413    2.102   .     S
Zr74   O385    2.102   .     S
Zr74   O428    2.092   .     S
Zr74   O430    2.093   .     S
Zr74   O450    2.092   .     S
Zr74   O448    2.092   .     S
Zr75   O147    2.102   .     S
Zr75   O175    2.102   .     S
Zr75   O329    2.102   .     S
Zr75   O357    2.102   .     S
Zr75   O431    2.092   .     S
Zr75   O433    2.093   .     S
Zr75   O444    2.092   .     S
Zr75   O446    2.092   .     S
Zr76   O161    2.102   .     S
Zr76   O189    2.102   .     S
Zr76   O343    2.102   .     S
Zr76   O315    2.102   .     S
Zr76   O432    2.093   .     S
Zr76   O434    2.092   .     S
Zr76   O445    2.092   .     S
Zr76   O443    2.092   .     S
Zr77   O203    2.102   .     S
Zr77   O231    2.102   .     S
Zr77   O287    2.102   .     S
Zr77   O259    2.102   .     S
Zr77   O435    2.092   .     S
Zr77   O437    2.092   .     S
Zr77   O441    2.092   .     S
Zr77   O439    2.092   .     S
Zr78   O217    2.102   .     S
Zr78   O245    2.102   .     S
Zr78   O273    2.102   .     S
Zr78   O301    2.102   .     S
Zr78   O436    2.092   .     S
Zr78   O438    2.092   .     S
Zr78   O440    2.092   .     S
Zr78   O442    2.092   .     S
Zr79   O427    2.085   .     S
Zr79   O448    2.085   1_545 S
Zr79   O430    2.085   1_545 S
Zr79   O449    2.085   .     S
Zr79   O451    2.107   .     S
Zr79   O472    2.107   .     S
Zr79   O414    2.142   1_545 S
Zr79   O120    2.142   .     S
Zr80   O428    2.085   1_545 S
Zr80   O449    2.085   .     S
Zr80   O429    2.085   .     S
Zr80   O448    2.085   1_545 S
Zr80   O452    2.107   .     S
Zr80   O473    2.107   .     S
Zr80   O372    2.142   .     S
Zr80   O134    2.142   1_545 S
Zr81   O429    2.085   .     S
Zr81   O450    2.085   1_545 S
Zr81   O428    2.085   1_545 S
Zr81   O447    2.085   .     S
Zr81   O453    2.107   .     S
Zr81   O474    2.107   .     S
Zr81   O386    2.142   1_545 S
Zr81   O92     2.142   .     S
Zr82   O430    2.085   1_545 S
Zr82   O447    2.085   .     S
Zr82   O427    2.085   .     S
Zr82   O450    2.085   1_545 S
Zr82   O454    2.107   .     S
Zr82   O471    2.107   .     S
Zr82   O400    2.142   .     S
Zr82   O106    2.142   1_545 S
Zr83   O431    2.085   .     S
Zr83   O443    2.085   1_554 S
Zr83   O434    2.085   1_554 S
Zr83   O446    2.085   .     S
Zr83   O455    2.107   .     S
Zr83   O467    2.107   .     S
Zr83   O344    2.142   1_554 S
Zr83   O176    2.142   .     S
Zr84   O432    2.085   1_554 S
Zr84   O446    2.085   .     S
Zr84   O433    2.085   .     S
Zr84   O443    2.085   1_554 S
Zr84   O456    2.107   .     S
Zr84   O470    2.107   .     S
Zr84   O330    2.142   .     S
Zr84   O190    2.142   1_554 S
Zr85   O433    2.085   .     S
Zr85   O445    2.085   1_554 S
Zr85   O432    2.085   1_554 S
Zr85   O444    2.085   .     S
Zr85   O457    2.107   .     S
Zr85   O469    2.107   .     S
Zr85   O316    2.142   1_554 S
Zr85   O148    2.142   .     S
Zr86   O434    2.085   1_554 S
Zr86   O444    2.085   .     S
Zr86   O431    2.085   .     S
Zr86   O445    2.085   1_554 S
Zr86   O458    2.107   .     S
Zr86   O468    2.107   .     S
Zr86   O358    2.142   .     S
Zr86   O162    2.142   1_554 S
Zr87   O435    2.085   .     S
Zr87   O442    2.085   1_455 S
Zr87   O438    2.085   1_455 S
Zr87   O439    2.085   .     S
Zr87   O459    2.107   .     S
Zr87   O466    2.107   .     S
Zr87   O274    2.142   1_455 S
Zr87   O232    2.142   .     S
Zr88   O436    2.085   1_455 S
Zr88   O439    2.085   .     S
Zr88   O437    2.085   .     S
Zr88   O442    2.085   1_455 S
Zr88   O460    2.107   .     S
Zr88   O463    2.107   .     S
Zr88   O288    2.142   .     S
Zr88   O246    2.142   1_455 S
Zr89   O437    2.085   .     S
Zr89   O440    2.085   1_455 S
Zr89   O436    2.085   1_455 S
Zr89   O441    2.085   .     S
Zr89   O461    2.107   .     S
Zr89   O464    2.107   .     S
Zr89   O302    2.142   1_455 S
Zr89   O204    2.142   .     S
Zr90   O438    2.085   1_455 S
Zr90   O441    2.085   .     S
Zr90   O435    2.085   .     S
Zr90   O440    2.085   1_455 S
Zr90   O462    2.107   .     S
Zr90   O465    2.107   .     S
Zr90   O260    2.142   .     S
Zr90   O218    2.142   1_455 S
O91    C93     1.292   .     D
O92    C93     1.301   .     S
C93    C94     1.510   .     S
C94    C95     1.414   .     S
C94    C102    1.412   .     D
C95    H96     1.083   .     S
C95    C97     1.406   .     D
C97    H98     1.083   .     S
C97    C99     1.403   .     S
C99    C100    1.408   .     D
C99    C104    1.510   .     S
C100   H101    1.083   .     S
C100   C102    1.413   .     S
C102   H103    1.083   .     S
C104   C475    1.425   .     S
C104   C497    1.425   .     D
O105   C107    1.292   .     D
O106   C107    1.301   .     S
O106   Zr82    2.142   1_565 S
C107   C108    1.510   .     S
C108   C109    1.413   .     S
C108   C116    1.412   .     D
C109   H110    1.083   .     S
C109   C111    1.406   .     D
C111   H112    1.083   .     S
C111   C113    1.403   .     S
C113   C114    1.408   .     D
C113   C118    1.509   .     S
C114   H115    1.083   .     S
C114   C116    1.413   .     S
C116   H117    1.083   .     S
C118   C477    1.426   .     S
C118   C491    1.424   .     D
O119   C121    1.292   .     D
O120   C121    1.301   .     S
C121   C122    1.510   .     S
C122   C123    1.413   .     S
C122   C130    1.412   .     D
C123   H124    1.083   .     S
C123   C125    1.405   .     D
C125   H126    1.083   .     S
C125   C127    1.403   .     S
C127   C128    1.408   .     D
C127   C132    1.510   .     S
C128   H129    1.083   .     S
C128   C130    1.413   .     S
C130   H131    1.083   .     S
C132   C479    1.423   .     S
C132   C495    1.423   .     D
O133   C135    1.292   .     D
O134   C135    1.301   .     S
O134   Zr80    2.142   1_565 S
C135   C136    1.510   .     S
C136   C137    1.414   .     S
C136   C144    1.412   .     D
C137   H138    1.083   .     S
C137   C139    1.406   .     D
C139   H140    1.083   .     S
C139   C141    1.403   .     S
C141   C142    1.408   .     D
C141   C146    1.508   .     S
C142   H143    1.083   .     S
C142   C144    1.413   .     S
C144   H145    1.083   .     S
C146   C481    1.428   .     S
C146   C493    1.427   .     D
O147   C149    1.292   .     D
O148   C149    1.301   .     S
C149   C150    1.510   .     S
C150   C151    1.414   .     D
C150   C158    1.412   .     S
C151   H152    1.083   .     S
C151   C153    1.406   .     S
C153   H154    1.083   .     S
C153   C155    1.403   .     D
C155   C156    1.408   .     S
C155   C160    1.510   .     S
C156   H157    1.083   .     S
C156   C158    1.413   .     D
C158   H159    1.083   .     S
C160   C483    1.425   .     S
C160   C481    1.425   .     D
O161   C163    1.292   .     D
O162   C163    1.301   .     S
O162   Zr86    2.142   1_556 S
C163   C164    1.510   .     S
C164   C165    1.414   .     D
C164   C172    1.412   .     S
C165   H166    1.083   .     S
C165   C167    1.406   .     S
C167   H168    1.083   .     S
C167   C169    1.403   .     D
C169   C170    1.408   .     S
C169   C174    1.508   .     S
C170   H171    1.083   .     S
C170   C172    1.413   .     D
C172   H173    1.083   .     S
C174   C485    1.427   .     S
C174   C475    1.428   .     D
O175   C177    1.292   .     D
O176   C177    1.301   .     S
C177   C178    1.510   .     S
C178   C179    1.414   .     D
C178   C186    1.412   .     S
C179   H180    1.083   .     S
C179   C181    1.406   .     S
C181   H182    1.083   .     S
C181   C183    1.403   .     D
C183   C184    1.408   .     S
C183   C188    1.509   .     S
C184   H185    1.083   .     S
C184   C186    1.413   .     D
C186   H187    1.083   .     S
C188   C487    1.425   .     S
C188   C479    1.425   .     D
O189   C191    1.292   .     D
O190   C191    1.301   .     S
O190   Zr84    2.142   1_556 S
C191   C192    1.510   .     S
C192   C193    1.414   .     D
C192   C200    1.412   .     S
C193   H194    1.083   .     S
C193   C195    1.406   .     S
C195   H196    1.083   .     S
C195   C197    1.403   .     D
C197   C198    1.408   .     S
C197   C202    1.509   .     S
C198   H199    1.083   .     S
C198   C200    1.413   .     D
C200   H201    1.083   .     S
C202   C489    1.426   .     S
C202   C477    1.424   .     D
O203   C205    1.292   .     D
O204   C205    1.301   .     S
C205   C206    1.510   .     S
C206   C207    1.414   .     D
C206   C214    1.412   .     S
C207   H208    1.083   .     S
C207   C209    1.406   .     S
C209   H210    1.083   .     S
C209   C211    1.403   .     D
C211   C212    1.408   .     S
C211   C216    1.509   .     S
C212   H213    1.083   .     S
C212   C214    1.413   .     D
C214   H215    1.083   .     S
C216   C491    1.426   .     S
C216   C489    1.424   .     D
O217   C219    1.292   .     D
O218   C219    1.301   .     S
O218   Zr90    2.142   1_655 S
C219   C220    1.510   .     S
C220   C221    1.413   .     D
C220   C228    1.412   .     S
C221   H222    1.083   .     S
C221   C223    1.405   .     S
C223   H224    1.083   .     S
C223   C225    1.403   .     D
C225   C226    1.408   .     S
C225   C230    1.510   .     S
C226   H227    1.083   .     S
C226   C228    1.413   .     D
C228   H229    1.083   .     S
C230   C493    1.423   .     S
C230   C483    1.423   .     D
O231   C233    1.292   .     D
O232   C233    1.301   .     S
C233   C234    1.510   .     S
C234   C235    1.414   .     D
C234   C242    1.412   .     S
C235   H236    1.083   .     S
C235   C237    1.406   .     S
C237   H238    1.083   .     S
C237   C239    1.403   .     D
C239   C240    1.408   .     S
C239   C244    1.508   .     S
C240   H241    1.083   .     S
C240   C242    1.413   .     D
C242   H243    1.083   .     S
C244   C495    1.427   .     S
C244   C487    1.428   .     D
O245   C247    1.292   .     D
O246   C247    1.301   .     S
O246   Zr88    2.142   1_655 S
C247   C248    1.510   .     S
C248   C249    1.413   .     D
C248   C256    1.412   .     S
C249   H250    1.083   .     S
C249   C251    1.405   .     S
C251   H252    1.083   .     S
C251   C253    1.403   .     D
C253   C254    1.408   .     S
C253   C258    1.510   .     S
C254   H255    1.083   .     S
C254   C256    1.413   .     D
C256   H257    1.083   .     S
C258   C497    1.423   .     S
C258   C485    1.423   .     D
O259   C261    1.292   .     D
O260   C261    1.301   .     S
C261   C262    1.510   .     S
C262   C263    1.413   .     S
C262   C270    1.412   .     D
C263   H264    1.083   .     S
C263   C265    1.405   .     D
C265   H266    1.083   .     S
C265   C267    1.403   .     S
C267   C268    1.408   .     D
C267   C272    1.510   .     S
C268   H269    1.083   .     S
C268   C270    1.413   .     S
C270   H271    1.083   .     S
C272   C499    1.423   .     S
C272   C521    1.423   .     D
O273   C275    1.292   .     D
O274   C275    1.301   .     S
O274   Zr87    2.142   1_655 S
C275   C276    1.510   .     S
C276   C277    1.414   .     S
C276   C284    1.412   .     D
C277   H278    1.083   .     S
C277   C279    1.406   .     D
C279   H280    1.083   .     S
C279   C281    1.403   .     S
C281   C282    1.408   .     D
C281   C286    1.509   .     S
C282   H283    1.083   .     S
C282   C284    1.413   .     S
C284   H285    1.083   .     S
C286   C501    1.425   .     S
C286   C515    1.425   .     D
O287   C289    1.292   .     D
O288   C289    1.301   .     S
C289   C290    1.510   .     S
C290   C291    1.414   .     S
C290   C298    1.412   .     D
C291   H292    1.083   .     S
C291   C293    1.406   .     D
C293   H294    1.083   .     S
C293   C295    1.403   .     S
C295   C296    1.408   .     D
C295   C300    1.508   .     S
C296   H297    1.083   .     S
C296   C298    1.413   .     S
C298   H299    1.083   .     S
C300   C503    1.428   .     S
C300   C519    1.427   .     D
O301   C303    1.292   .     D
O302   C303    1.301   .     S
O302   Zr89    2.142   1_655 S
C303   C304    1.510   .     S
C304   C305    1.414   .     S
C304   C312    1.412   .     D
C305   H306    1.083   .     S
C305   C307    1.406   .     D
C307   H308    1.083   .     S
C307   C309    1.403   .     S
C309   C310    1.408   .     D
C309   C314    1.508   .     S
C310   H311    1.083   .     S
C310   C312    1.413   .     S
C312   H313    1.083   .     S
C314   C505    1.427   .     S
C314   C517    1.427   .     D
O315   C317    1.292   .     D
O316   C317    1.301   .     S
O316   Zr85    2.142   1_556 S
C317   C318    1.510   .     S
C318   C319    1.413   .     D
C318   C326    1.412   .     S
C319   H320    1.083   .     S
C319   C321    1.406   .     S
C321   H322    1.083   .     S
C321   C323    1.403   .     D
C323   C324    1.408   .     S
C323   C328    1.509   .     S
C324   H325    1.083   .     S
C324   C326    1.413   .     D
C326   H327    1.083   .     S
C328   C507    1.425   .     S
C328   C505    1.425   .     D
O329   C331    1.292   .     D
O330   C331    1.301   .     S
C331   C332    1.510   .     S
C332   C333    1.413   .     D
C332   C340    1.412   .     S
C333   H334    1.083   .     S
C333   C335    1.406   .     S
C335   H336    1.083   .     S
C335   C337    1.403   .     D
C337   C338    1.408   .     S
C337   C342    1.509   .     S
C338   H339    1.083   .     S
C338   C340    1.413   .     D
C340   H341    1.083   .     S
C342   C509    1.425   .     S
C342   C499    1.425   .     D
O343   C345    1.292   .     D
O344   C345    1.301   .     S
O344   Zr83    2.142   1_556 S
C345   C346    1.510   .     S
C346   C347    1.414   .     D
C346   C354    1.412   .     S
C347   H348    1.083   .     S
C347   C349    1.406   .     S
C349   H350    1.083   .     S
C349   C351    1.403   .     D
C351   C352    1.408   .     S
C351   C356    1.510   .     S
C352   H353    1.083   .     S
C352   C354    1.413   .     D
C354   H355    1.083   .     S
C356   C511    1.425   .     S
C356   C503    1.425   .     D
O357   C359    1.292   .     D
O358   C359    1.301   .     S
C359   C360    1.510   .     S
C360   C361    1.414   .     D
C360   C368    1.412   .     S
C361   H362    1.083   .     S
C361   C363    1.406   .     S
C363   H364    1.083   .     S
C363   C365    1.403   .     D
C365   C366    1.408   .     S
C365   C370    1.508   .     S
C366   H367    1.083   .     S
C366   C368    1.413   .     D
C368   H369    1.083   .     S
C370   C513    1.427   .     S
C370   C501    1.428   .     D
O371   C373    1.292   .     D
O372   C373    1.301   .     S
C373   C374    1.510   .     S
C374   C375    1.413   .     D
C374   C382    1.412   .     S
C375   H376    1.083   .     S
C375   C377    1.405   .     S
C377   H378    1.083   .     S
C377   C379    1.403   .     D
C379   C380    1.408   .     S
C379   C384    1.510   .     S
C380   H381    1.083   .     S
C380   C382    1.413   .     D
C382   H383    1.083   .     S
C384   C515    1.423   .     S
C384   C513    1.423   .     D
O385   C387    1.292   .     D
O386   C387    1.301   .     S
O386   Zr81    2.142   1_565 S
C387   C388    1.510   .     S
C388   C389    1.413   .     D
C388   C396    1.412   .     S
C389   H390    1.083   .     S
C389   C391    1.405   .     S
C391   H392    1.083   .     S
C391   C393    1.403   .     D
C393   C394    1.408   .     S
C393   C398    1.510   .     S
C394   H395    1.083   .     S
C394   C396    1.413   .     D
C396   H397    1.083   .     S
C398   C517    1.423   .     S
C398   C507    1.423   .     D
O399   C401    1.292   .     D
O400   C401    1.301   .     S
C401   C402    1.510   .     S
C402   C403    1.413   .     D
C402   C410    1.412   .     S
C403   H404    1.083   .     S
C403   C405    1.405   .     S
C405   H406    1.083   .     S
C405   C407    1.403   .     D
C407   C408    1.408   .     S
C407   C412    1.510   .     S
C408   H409    1.083   .     S
C408   C410    1.413   .     D
C410   H411    1.083   .     S
C412   C519    1.423   .     S
C412   C511    1.423   .     D
O413   C415    1.292   .     D
O414   C415    1.301   .     S
O414   Zr79    2.142   1_565 S
C415   C416    1.510   .     S
C416   C417    1.414   .     D
C416   C424    1.412   .     S
C417   H418    1.083   .     S
C417   C419    1.406   .     S
C419   H420    1.083   .     S
C419   C421    1.403   .     D
C421   C422    1.408   .     S
C421   C426    1.508   .     S
C422   H423    1.083   .     S
C422   C424    1.413   .     D
C424   H425    1.083   .     S
C426   C521    1.427   .     S
C426   C509    1.427   .     D
O428   Zr80    2.085   1_565 S
O428   Zr81    2.085   1_565 S
O430   Zr82    2.085   1_565 S
O430   Zr79    2.085   1_565 S
O432   Zr84    2.085   1_556 S
O432   Zr85    2.085   1_556 S
O434   Zr86    2.085   1_556 S
O434   Zr83    2.085   1_556 S
O436   Zr88    2.085   1_655 S
O436   Zr89    2.085   1_655 S
O438   Zr90    2.085   1_655 S
O438   Zr87    2.085   1_655 S
O440   Zr89    2.085   1_655 S
O440   Zr90    2.085   1_655 S
O442   Zr87    2.085   1_655 S
O442   Zr88    2.085   1_655 S
O443   Zr83    2.085   1_556 S
O443   Zr84    2.085   1_556 S
O445   Zr85    2.085   1_556 S
O445   Zr86    2.085   1_556 S
O448   Zr79    2.085   1_565 S
O448   Zr80    2.085   1_565 S
O450   Zr81    2.085   1_565 S
O450   Zr82    2.085   1_565 S
C475   C476    1.517   .     S
C477   C478    1.517   .     S
C479   C480    1.516   .     S
C481   C482    1.517   .     S
C483   C484    1.516   .     S
C485   C486    1.517   .     S
C487   C488    1.517   .     S
C489   C490    1.517   .     S
C491   C492    1.517   .     S
C493   C494    1.517   .     S
C495   C496    1.517   .     S
C497   C498    1.516   .     S
C499   C500    1.516   .     S
C501   C502    1.517   .     S
C503   C504    1.517   .     S
C505   C506    1.517   .     S
C507   C508    1.516   .     S
C509   C510    1.517   .     S
C511   C512    1.516   .     S
C513   C514    1.517   .     S
C515   C516    1.516   .     S
C517   C518    1.517   .     S
C519   C520    1.517   .     S
C521   C522    1.517   .     S
