data_NU-1500-Fe
_audit_creation_date              2023-01-09
_audit_creation_method            'Materials Studio'
_symmetry_space_group_name_H-M    'P1'
_symmetry_Int_Tables_number       1
_symmetry_cell_setting            triclinic
loop_
_symmetry_equiv_pos_as_xyz
  x,y,z
_cell_length_a                    39.1410
_cell_length_b                    39.1410
_cell_length_c                    22.5258
_cell_angle_alpha                 90.0000
_cell_angle_beta                  90.0000
_cell_angle_gamma                 120.0000
loop_
_atom_site_label
_atom_site_type_symbol
_atom_site_fract_x
_atom_site_fract_y
_atom_site_fract_z
_atom_site_U_iso_or_equiv
_atom_site_adp_type
_atom_site_occupancy
O1     O     0.22805   0.32830   0.43790   0.10200  Uani   1.00
C2     C     0.22230   0.22215   0.33490   0.23711  Uani   1.00
H3     H     0.20681   0.19487   0.32584   0.28400  Uiso   1.00
C4     C     0.20565   0.23860   0.36650   0.24733  Uani   1.00
H5     H     0.17863   0.22268   0.37680   0.29700  Uiso   1.00
O6     O     0.17170   0.39975   0.43790   0.10200  Uani   1.00
C7     C     0.27785   0.00015   0.33490   0.23711  Uani   1.00
H8     H     0.30513   0.01194   0.32584   0.28400  Uiso   1.00
C9     C     0.26140   0.46705   0.36650   0.24733  Uani   1.00
H10    H     0.27732   0.45595   0.37680   0.29700  Uiso   1.00
O11    O     0.10025   0.27195   0.43790   0.10200  Uani   1.00
C12    C     0.49985   0.27770   0.33490   0.23711  Uani   1.00
H13    H     0.48806   0.29319   0.32584   0.28400  Uiso   1.00
C14    C     0.03295   0.29435   0.36650   0.24733  Uani   1.00
H15    H     0.04405   0.32137   0.37680   0.29700  Uiso   1.00
O16    O     0.22805   0.32830   0.06210   0.10200  Uani   1.00
C17    C     0.22230   0.22215   0.16510   0.23711  Uani   1.00
H18    H     0.20681   0.19487   0.17416   0.28400  Uiso   1.00
C19    C     0.20565   0.23860   0.13350   0.24733  Uani   1.00
H20    H     0.17863   0.22268   0.12320   0.29700  Uiso   1.00
O21    O     0.17170   0.39975   0.06210   0.10200  Uani   1.00
C22    C     0.27785   0.00015   0.16510   0.23711  Uani   1.00
H23    H     0.30513   0.01194   0.17416   0.28400  Uiso   1.00
C24    C     0.26140   0.46705   0.13350   0.24733  Uani   1.00
H25    H     0.27732   0.45595   0.12320   0.29700  Uiso   1.00
O26    O     0.10025   0.27195   0.06210   0.10200  Uani   1.00
C27    C     0.49985   0.27770   0.16510   0.23711  Uani   1.00
H28    H     0.48806   0.29319   0.17416   0.28400  Uiso   1.00
C29    C     0.03295   0.29435   0.13350   0.24733  Uani   1.00
H30    H     0.04405   0.32137   0.12320   0.29700  Uiso   1.00
O31    O     0.17170   0.27195   0.43790   0.10200  Uani   1.00
C32    C     0.27785   0.27770   0.33490   0.23711  Uani   1.00
H33    H     0.30513   0.29319   0.32584   0.28400  Uiso   1.00
C34    C     0.26140   0.29435   0.36650   0.24733  Uani   1.00
H35    H     0.27732   0.32137   0.37680   0.29700  Uiso   1.00
O36    O     0.10025   0.32830   0.43790   0.10200  Uani   1.00
C37    C     0.49985   0.22215   0.33490   0.23711  Uani   1.00
H38    H     0.48806   0.19487   0.32584   0.28400  Uiso   1.00
C39    C     0.03295   0.23860   0.36650   0.24733  Uani   1.00
H40    H     0.04405   0.22268   0.37680   0.29700  Uiso   1.00
O41    O     0.22805   0.39975   0.43790   0.10200  Uani   1.00
C42    C     0.22230   0.00015   0.33490   0.23711  Uani   1.00
H43    H     0.20681   0.01194   0.32584   0.28400  Uiso   1.00
C44    C     0.20565   0.46705   0.36650   0.24733  Uani   1.00
H45    H     0.17863   0.45595   0.37680   0.29700  Uiso   1.00
O46    O     0.17170   0.27195   0.06210   0.10200  Uani   1.00
C47    C     0.27785   0.27770   0.16510   0.23711  Uani   1.00
H48    H     0.30513   0.29319   0.17416   0.28400  Uiso   1.00
C49    C     0.26140   0.29435   0.13350   0.24733  Uani   1.00
H50    H     0.27732   0.32137   0.12320   0.29700  Uiso   1.00
O51    O     0.10025   0.32830   0.06210   0.10200  Uani   1.00
C52    C     0.49985   0.22215   0.16510   0.23711  Uani   1.00
H53    H     0.48806   0.19487   0.17416   0.28400  Uiso   1.00
C54    C     0.03295   0.23860   0.13350   0.24733  Uani   1.00
H55    H     0.04405   0.22268   0.12320   0.29700  Uiso   1.00
O56    O     0.22805   0.39975   0.06210   0.10200  Uani   1.00
C57    C     0.22230   0.00015   0.16510   0.23711  Uani   1.00
H58    H     0.20681   0.01194   0.17416   0.28400  Uiso   1.00
C59    C     0.20565   0.46705   0.13350   0.24733  Uani   1.00
H60    H     0.17863   0.45595   0.12320   0.29700  Uiso   1.00
Fe61   Fe    0.22331   0.36166   0.00000   0.06044  Uani   1.00
O62    O     0.28230   0.39115   0.00000   0.08956  Uani   1.00
Fe63   Fe    0.13834   0.36166   0.00000   0.06044  Uani   1.00
O64    O     0.10885   0.39115   0.00000   0.08956  Uani   1.00
Fe65   Fe    0.13834   0.27669   0.00000   0.06044  Uani   1.00
O66    O     0.10885   0.21770   0.00000   0.08956  Uani   1.00
O67    O     0.16667   0.33333   0.00000   0.05067  Uani   1.00
C68    C     0.31300   0.18700   0.28100   0.05756  Uani   1.00
C69    C     0.22428   0.27572   0.38445   0.06611  Uani   1.00
C70    C     0.27710   0.22290   0.28130   0.06667  Uani   1.00
C71    C     0.25885   0.24115   0.31540   0.07122  Uani   1.00
C72    C     0.20660   0.29340   0.42085   0.06756  Uani   1.00
C73    C     0.29505   0.20495   0.31205   0.06267  Uani   1.00
H74    H     0.29507   0.20493   0.35420   0.07500  Uiso   1.00
C75    C     0.31300   0.12600   0.28100   0.05756  Uani   1.00
C76    C     0.22428   0.44857   0.38445   0.06611  Uani   1.00
C77    C     0.27710   0.05420   0.28130   0.06667  Uani   1.00
C78    C     0.25885   0.01770   0.31540   0.07122  Uani   1.00
C79    C     0.20660   0.41320   0.42085   0.06756  Uani   1.00
C80    C     0.29505   0.09010   0.31205   0.06267  Uani   1.00
H81    H     0.29507   0.09014   0.35420   0.07500  Uiso   1.00
C82    C     0.37400   0.18700   0.28100   0.05756  Uani   1.00
C83    C     0.05143   0.27572   0.38445   0.06611  Uani   1.00
C84    C     0.44580   0.22290   0.28130   0.06667  Uani   1.00
C85    C     0.48230   0.24115   0.31540   0.07122  Uani   1.00
C86    C     0.08680   0.29340   0.42085   0.06756  Uani   1.00
C87    C     0.40990   0.20495   0.31205   0.06267  Uani   1.00
H88    H     0.40986   0.20493   0.35420   0.07500  Uiso   1.00
C89    C     0.31300   0.18700   0.21900   0.05756  Uani   1.00
C90    C     0.22428   0.27572   0.11555   0.06611  Uani   1.00
C91    C     0.27710   0.22290   0.21870   0.06667  Uani   1.00
C92    C     0.25885   0.24115   0.18460   0.07122  Uani   1.00
C93    C     0.20660   0.29340   0.07915   0.06756  Uani   1.00
C94    C     0.29505   0.20495   0.18795   0.06267  Uani   1.00
H95    H     0.29507   0.20493   0.14580   0.07500  Uiso   1.00
C96    C     0.31300   0.12600   0.21900   0.05756  Uani   1.00
C97    C     0.22428   0.44857   0.11555   0.06611  Uani   1.00
C98    C     0.27710   0.05420   0.21870   0.06667  Uani   1.00
C99    C     0.25885   0.01770   0.18460   0.07122  Uani   1.00
C100   C     0.20660   0.41320   0.07915   0.06756  Uani   1.00
C101   C     0.29505   0.09010   0.18795   0.06267  Uani   1.00
H102   H     0.29507   0.09014   0.14580   0.07500  Uiso   1.00
C103   C     0.37400   0.18700   0.21900   0.05756  Uani   1.00
C104   C     0.05143   0.27572   0.11555   0.06611  Uani   1.00
C105   C     0.44580   0.22290   0.21870   0.06667  Uani   1.00
C106   C     0.48230   0.24115   0.18460   0.07122  Uani   1.00
C107   C     0.08680   0.29340   0.07915   0.06756  Uani   1.00
C108   C     0.40990   0.20495   0.18795   0.06267  Uani   1.00
H109   H     0.40986   0.20493   0.14580   0.07500  Uiso   1.00
C110   C     0.33333   0.16667   0.30735   0.05178  Uani   1.00
H111   H     0.33333   0.16667   0.35174   0.06300  Uiso   1.00
C112   C     0.33333   0.16667   0.19265   0.05178  Uani   1.00
H113   H     0.33333   0.16667   0.14826   0.06300  Uiso   1.00
O114   O     0.72805   0.32830   0.43790   0.10200  Uani   1.00
C115   C     0.72230   0.22215   0.33490   0.23711  Uani   1.00
H116   H     0.70681   0.19487   0.32584   0.28400  Uiso   1.00
C117   C     0.70565   0.23860   0.36650   0.24733  Uani   1.00
H118   H     0.67863   0.22268   0.37680   0.29700  Uiso   1.00
O119   O     0.67170   0.39975   0.43790   0.10200  Uani   1.00
C120   C     0.77785   0.00015   0.33490   0.23711  Uani   1.00
H121   H     0.80513   0.01194   0.32584   0.28400  Uiso   1.00
C122   C     0.76140   0.46705   0.36650   0.24733  Uani   1.00
H123   H     0.77732   0.45595   0.37680   0.29700  Uiso   1.00
O124   O     0.60025   0.27195   0.43790   0.10200  Uani   1.00
C125   C     0.99985   0.27770   0.33490   0.23711  Uani   1.00
H126   H     0.98806   0.29319   0.32584   0.28400  Uiso   1.00
C127   C     0.53295   0.29435   0.36650   0.24733  Uani   1.00
H128   H     0.54405   0.32137   0.37680   0.29700  Uiso   1.00
O129   O     0.72805   0.32830   0.06210   0.10200  Uani   1.00
C130   C     0.72230   0.22215   0.16510   0.23711  Uani   1.00
H131   H     0.70681   0.19487   0.17416   0.28400  Uiso   1.00
C132   C     0.70565   0.23860   0.13350   0.24733  Uani   1.00
H133   H     0.67863   0.22268   0.12320   0.29700  Uiso   1.00
O134   O     0.67170   0.39975   0.06210   0.10200  Uani   1.00
C135   C     0.77785   0.00015   0.16510   0.23711  Uani   1.00
H136   H     0.80513   0.01194   0.17416   0.28400  Uiso   1.00
C137   C     0.76140   0.46705   0.13350   0.24733  Uani   1.00
H138   H     0.77732   0.45595   0.12320   0.29700  Uiso   1.00
O139   O     0.60025   0.27195   0.06210   0.10200  Uani   1.00
C140   C     0.99985   0.27770   0.16510   0.23711  Uani   1.00
H141   H     0.98806   0.29319   0.17416   0.28400  Uiso   1.00
C142   C     0.53295   0.29435   0.13350   0.24733  Uani   1.00
H143   H     0.54405   0.32137   0.12320   0.29700  Uiso   1.00
O144   O     0.67170   0.27195   0.43790   0.10200  Uani   1.00
C145   C     0.77785   0.27770   0.33490   0.23711  Uani   1.00
H146   H     0.80513   0.29319   0.32584   0.28400  Uiso   1.00
C147   C     0.76140   0.29435   0.36650   0.24733  Uani   1.00
H148   H     0.77732   0.32137   0.37680   0.29700  Uiso   1.00
O149   O     0.60025   0.32830   0.43790   0.10200  Uani   1.00
C150   C     0.99985   0.22215   0.33490   0.23711  Uani   1.00
H151   H     0.98806   0.19487   0.32584   0.28400  Uiso   1.00
C152   C     0.53295   0.23860   0.36650   0.24733  Uani   1.00
H153   H     0.54405   0.22268   0.37680   0.29700  Uiso   1.00
O154   O     0.72805   0.39975   0.43790   0.10200  Uani   1.00
C155   C     0.72230   0.00015   0.33490   0.23711  Uani   1.00
H156   H     0.70681   0.01194   0.32584   0.28400  Uiso   1.00
C157   C     0.70565   0.46705   0.36650   0.24733  Uani   1.00
H158   H     0.67863   0.45595   0.37680   0.29700  Uiso   1.00
O159   O     0.67170   0.27195   0.06210   0.10200  Uani   1.00
C160   C     0.77785   0.27770   0.16510   0.23711  Uani   1.00
H161   H     0.80513   0.29319   0.17416   0.28400  Uiso   1.00
C162   C     0.76140   0.29435   0.13350   0.24733  Uani   1.00
H163   H     0.77732   0.32137   0.12320   0.29700  Uiso   1.00
O164   O     0.60025   0.32830   0.06210   0.10200  Uani   1.00
C165   C     0.99985   0.22215   0.16510   0.23711  Uani   1.00
H166   H     0.98806   0.19487   0.17416   0.28400  Uiso   1.00
C167   C     0.53295   0.23860   0.13350   0.24733  Uani   1.00
H168   H     0.54405   0.22268   0.12320   0.29700  Uiso   1.00
O169   O     0.72805   0.39975   0.06210   0.10200  Uani   1.00
C170   C     0.72230   0.00015   0.16510   0.23711  Uani   1.00
H171   H     0.70681   0.01194   0.17416   0.28400  Uiso   1.00
C172   C     0.70565   0.46705   0.13350   0.24733  Uani   1.00
H173   H     0.67863   0.45595   0.12320   0.29700  Uiso   1.00
Fe174  Fe    0.72331   0.36166   0.00000   0.06044  Uani   1.00
O175   O     0.78230   0.39115   0.00000   0.08956  Uani   1.00
Fe176  Fe    0.63834   0.36166   0.00000   0.06044  Uani   1.00
O177   O     0.60885   0.39115   0.00000   0.08956  Uani   1.00
Fe178  Fe    0.63834   0.27669   0.00000   0.06044  Uani   1.00
O179   O     0.60885   0.21770   0.00000   0.08956  Uani   1.00
O180   O     0.66667   0.33333   0.00000   0.05067  Uani   1.00
C181   C     0.81300   0.18700   0.28100   0.05756  Uani   1.00
C182   C     0.72428   0.27572   0.38445   0.06611  Uani   1.00
C183   C     0.77710   0.22290   0.28130   0.06667  Uani   1.00
C184   C     0.75885   0.24115   0.31540   0.07122  Uani   1.00
C185   C     0.70660   0.29340   0.42085   0.06756  Uani   1.00
C186   C     0.79505   0.20495   0.31205   0.06267  Uani   1.00
H187   H     0.79507   0.20493   0.35420   0.07500  Uiso   1.00
C188   C     0.81300   0.12600   0.28100   0.05756  Uani   1.00
C189   C     0.72428   0.44857   0.38445   0.06611  Uani   1.00
C190   C     0.77710   0.05420   0.28130   0.06667  Uani   1.00
C191   C     0.75885   0.01770   0.31540   0.07122  Uani   1.00
C192   C     0.70660   0.41320   0.42085   0.06756  Uani   1.00
C193   C     0.79505   0.09010   0.31205   0.06267  Uani   1.00
H194   H     0.79507   0.09014   0.35420   0.07500  Uiso   1.00
C195   C     0.87400   0.18700   0.28100   0.05756  Uani   1.00
C196   C     0.55143   0.27572   0.38445   0.06611  Uani   1.00
C197   C     0.94580   0.22290   0.28130   0.06667  Uani   1.00
C198   C     0.98230   0.24115   0.31540   0.07122  Uani   1.00
C199   C     0.58680   0.29340   0.42085   0.06756  Uani   1.00
C200   C     0.90990   0.20495   0.31205   0.06267  Uani   1.00
H201   H     0.90986   0.20493   0.35420   0.07500  Uiso   1.00
C202   C     0.81300   0.18700   0.21900   0.05756  Uani   1.00
C203   C     0.72428   0.27572   0.11555   0.06611  Uani   1.00
C204   C     0.77710   0.22290   0.21870   0.06667  Uani   1.00
C205   C     0.75885   0.24115   0.18460   0.07122  Uani   1.00
C206   C     0.70660   0.29340   0.07915   0.06756  Uani   1.00
C207   C     0.79505   0.20495   0.18795   0.06267  Uani   1.00
H208   H     0.79507   0.20493   0.14580   0.07500  Uiso   1.00
C209   C     0.81300   0.12600   0.21900   0.05756  Uani   1.00
C210   C     0.72428   0.44857   0.11555   0.06611  Uani   1.00
C211   C     0.77710   0.05420   0.21870   0.06667  Uani   1.00
C212   C     0.75885   0.01770   0.18460   0.07122  Uani   1.00
C213   C     0.70660   0.41320   0.07915   0.06756  Uani   1.00
C214   C     0.79505   0.09010   0.18795   0.06267  Uani   1.00
H215   H     0.79507   0.09014   0.14580   0.07500  Uiso   1.00
C216   C     0.87400   0.18700   0.21900   0.05756  Uani   1.00
C217   C     0.55143   0.27572   0.11555   0.06611  Uani   1.00
C218   C     0.94580   0.22290   0.21870   0.06667  Uani   1.00
C219   C     0.98230   0.24115   0.18460   0.07122  Uani   1.00
C220   C     0.58680   0.29340   0.07915   0.06756  Uani   1.00
C221   C     0.90990   0.20495   0.18795   0.06267  Uani   1.00
H222   H     0.90986   0.20493   0.14580   0.07500  Uiso   1.00
C223   C     0.83333   0.16667   0.30735   0.05178  Uani   1.00
H224   H     0.83333   0.16667   0.35174   0.06300  Uiso   1.00
C225   C     0.83333   0.16667   0.19265   0.05178  Uani   1.00
H226   H     0.83333   0.16667   0.14826   0.06300  Uiso   1.00
O227   O     0.22805   0.82830   0.43790   0.10200  Uani   1.00
C228   C     0.22230   0.72215   0.33490   0.23711  Uani   1.00
H229   H     0.20681   0.69487   0.32584   0.28400  Uiso   1.00
C230   C     0.20565   0.73860   0.36650   0.24733  Uani   1.00
H231   H     0.17863   0.72268   0.37680   0.29700  Uiso   1.00
O232   O     0.17170   0.89975   0.43790   0.10200  Uani   1.00
C233   C     0.27785   0.50015   0.33490   0.23711  Uani   1.00
H234   H     0.30513   0.51194   0.32584   0.28400  Uiso   1.00
C235   C     0.26140   0.96705   0.36650   0.24733  Uani   1.00
H236   H     0.27732   0.95595   0.37680   0.29700  Uiso   1.00
O237   O     0.10025   0.77195   0.43790   0.10200  Uani   1.00
C238   C     0.49985   0.77770   0.33490   0.23711  Uani   1.00
H239   H     0.48806   0.79319   0.32584   0.28400  Uiso   1.00
C240   C     0.03295   0.79435   0.36650   0.24733  Uani   1.00
H241   H     0.04405   0.82137   0.37680   0.29700  Uiso   1.00
O242   O     0.22805   0.82830   0.06210   0.10200  Uani   1.00
C243   C     0.22230   0.72215   0.16510   0.23711  Uani   1.00
H244   H     0.20681   0.69487   0.17416   0.28400  Uiso   1.00
C245   C     0.20565   0.73860   0.13350   0.24733  Uani   1.00
H246   H     0.17863   0.72268   0.12320   0.29700  Uiso   1.00
O247   O     0.17170   0.89975   0.06210   0.10200  Uani   1.00
C248   C     0.27785   0.50015   0.16510   0.23711  Uani   1.00
H249   H     0.30513   0.51194   0.17416   0.28400  Uiso   1.00
C250   C     0.26140   0.96705   0.13350   0.24733  Uani   1.00
H251   H     0.27732   0.95595   0.12320   0.29700  Uiso   1.00
O252   O     0.10025   0.77195   0.06210   0.10200  Uani   1.00
C253   C     0.49985   0.77770   0.16510   0.23711  Uani   1.00
H254   H     0.48806   0.79319   0.17416   0.28400  Uiso   1.00
C255   C     0.03295   0.79435   0.13350   0.24733  Uani   1.00
H256   H     0.04405   0.82137   0.12320   0.29700  Uiso   1.00
O257   O     0.17170   0.77195   0.43790   0.10200  Uani   1.00
C258   C     0.27785   0.77770   0.33490   0.23711  Uani   1.00
H259   H     0.30513   0.79319   0.32584   0.28400  Uiso   1.00
C260   C     0.26140   0.79435   0.36650   0.24733  Uani   1.00
H261   H     0.27732   0.82137   0.37680   0.29700  Uiso   1.00
O262   O     0.10025   0.82830   0.43790   0.10200  Uani   1.00
C263   C     0.49985   0.72215   0.33490   0.23711  Uani   1.00
H264   H     0.48806   0.69487   0.32584   0.28400  Uiso   1.00
C265   C     0.03295   0.73860   0.36650   0.24733  Uani   1.00
H266   H     0.04405   0.72268   0.37680   0.29700  Uiso   1.00
O267   O     0.22805   0.89975   0.43790   0.10200  Uani   1.00
C268   C     0.22230   0.50015   0.33490   0.23711  Uani   1.00
H269   H     0.20681   0.51194   0.32584   0.28400  Uiso   1.00
C270   C     0.20565   0.96705   0.36650   0.24733  Uani   1.00
H271   H     0.17863   0.95595   0.37680   0.29700  Uiso   1.00
O272   O     0.17170   0.77195   0.06210   0.10200  Uani   1.00
C273   C     0.27785   0.77770   0.16510   0.23711  Uani   1.00
H274   H     0.30513   0.79319   0.17416   0.28400  Uiso   1.00
C275   C     0.26140   0.79435   0.13350   0.24733  Uani   1.00
H276   H     0.27732   0.82137   0.12320   0.29700  Uiso   1.00
O277   O     0.10025   0.82830   0.06210   0.10200  Uani   1.00
C278   C     0.49985   0.72215   0.16510   0.23711  Uani   1.00
H279   H     0.48806   0.69487   0.17416   0.28400  Uiso   1.00
C280   C     0.03295   0.73860   0.13350   0.24733  Uani   1.00
H281   H     0.04405   0.72268   0.12320   0.29700  Uiso   1.00
O282   O     0.22805   0.89975   0.06210   0.10200  Uani   1.00
C283   C     0.22230   0.50015   0.16510   0.23711  Uani   1.00
H284   H     0.20681   0.51194   0.17416   0.28400  Uiso   1.00
C285   C     0.20565   0.96705   0.13350   0.24733  Uani   1.00
H286   H     0.17863   0.95595   0.12320   0.29700  Uiso   1.00
Fe287  Fe    0.22331   0.86166   0.00000   0.06044  Uani   1.00
O288   O     0.28230   0.89115   0.00000   0.08956  Uani   1.00
Fe289  Fe    0.13834   0.86166   0.00000   0.06044  Uani   1.00
O290   O     0.10885   0.89115   0.00000   0.08956  Uani   1.00
Fe291  Fe    0.13834   0.77669   0.00000   0.06044  Uani   1.00
O292   O     0.10885   0.71770   0.00000   0.08956  Uani   1.00
O293   O     0.16667   0.83333   0.00000   0.05067  Uani   1.00
C294   C     0.31300   0.68700   0.28100   0.05756  Uani   1.00
C295   C     0.22428   0.77572   0.38445   0.06611  Uani   1.00
C296   C     0.27710   0.72290   0.28130   0.06667  Uani   1.00
C297   C     0.25885   0.74115   0.31540   0.07122  Uani   1.00
C298   C     0.20660   0.79340   0.42085   0.06756  Uani   1.00
C299   C     0.29505   0.70495   0.31205   0.06267  Uani   1.00
H300   H     0.29507   0.70493   0.35420   0.07500  Uiso   1.00
C301   C     0.31300   0.62600   0.28100   0.05756  Uani   1.00
C302   C     0.22428   0.94857   0.38445   0.06611  Uani   1.00
C303   C     0.27710   0.55420   0.28130   0.06667  Uani   1.00
C304   C     0.25885   0.51770   0.31540   0.07122  Uani   1.00
C305   C     0.20660   0.91320   0.42085   0.06756  Uani   1.00
C306   C     0.29505   0.59010   0.31205   0.06267  Uani   1.00
H307   H     0.29507   0.59014   0.35420   0.07500  Uiso   1.00
C308   C     0.37400   0.68700   0.28100   0.05756  Uani   1.00
C309   C     0.05143   0.77572   0.38445   0.06611  Uani   1.00
C310   C     0.44580   0.72290   0.28130   0.06667  Uani   1.00
C311   C     0.48230   0.74115   0.31540   0.07122  Uani   1.00
C312   C     0.08680   0.79340   0.42085   0.06756  Uani   1.00
C313   C     0.40990   0.70495   0.31205   0.06267  Uani   1.00
H314   H     0.40986   0.70493   0.35420   0.07500  Uiso   1.00
C315   C     0.31300   0.68700   0.21900   0.05756  Uani   1.00
C316   C     0.22428   0.77572   0.11555   0.06611  Uani   1.00
C317   C     0.27710   0.72290   0.21870   0.06667  Uani   1.00
C318   C     0.25885   0.74115   0.18460   0.07122  Uani   1.00
C319   C     0.20660   0.79340   0.07915   0.06756  Uani   1.00
C320   C     0.29505   0.70495   0.18795   0.06267  Uani   1.00
H321   H     0.29507   0.70493   0.14580   0.07500  Uiso   1.00
C322   C     0.31300   0.62600   0.21900   0.05756  Uani   1.00
C323   C     0.22428   0.94857   0.11555   0.06611  Uani   1.00
C324   C     0.27710   0.55420   0.21870   0.06667  Uani   1.00
C325   C     0.25885   0.51770   0.18460   0.07122  Uani   1.00
C326   C     0.20660   0.91320   0.07915   0.06756  Uani   1.00
C327   C     0.29505   0.59010   0.18795   0.06267  Uani   1.00
H328   H     0.29507   0.59014   0.14580   0.07500  Uiso   1.00
C329   C     0.37400   0.68700   0.21900   0.05756  Uani   1.00
C330   C     0.05143   0.77572   0.11555   0.06611  Uani   1.00
C331   C     0.44580   0.72290   0.21870   0.06667  Uani   1.00
C332   C     0.48230   0.74115   0.18460   0.07122  Uani   1.00
C333   C     0.08680   0.79340   0.07915   0.06756  Uani   1.00
C334   C     0.40990   0.70495   0.18795   0.06267  Uani   1.00
H335   H     0.40986   0.70493   0.14580   0.07500  Uiso   1.00
C336   C     0.33333   0.66667   0.30735   0.05178  Uani   1.00
H337   H     0.33333   0.66667   0.35174   0.06300  Uiso   1.00
C338   C     0.33333   0.66667   0.19265   0.05178  Uani   1.00
H339   H     0.33333   0.66667   0.14826   0.06300  Uiso   1.00
O340   O     0.72805   0.82830   0.43790   0.10200  Uani   1.00
C341   C     0.72230   0.72215   0.33490   0.23711  Uani   1.00
H342   H     0.70681   0.69487   0.32584   0.28400  Uiso   1.00
C343   C     0.70565   0.73860   0.36650   0.24733  Uani   1.00
H344   H     0.67863   0.72268   0.37680   0.29700  Uiso   1.00
O345   O     0.67170   0.89975   0.43790   0.10200  Uani   1.00
C346   C     0.77785   0.50015   0.33490   0.23711  Uani   1.00
H347   H     0.80513   0.51194   0.32584   0.28400  Uiso   1.00
C348   C     0.76140   0.96705   0.36650   0.24733  Uani   1.00
H349   H     0.77732   0.95595   0.37680   0.29700  Uiso   1.00
O350   O     0.60025   0.77195   0.43790   0.10200  Uani   1.00
C351   C     0.99985   0.77770   0.33490   0.23711  Uani   1.00
H352   H     0.98806   0.79319   0.32584   0.28400  Uiso   1.00
C353   C     0.53295   0.79435   0.36650   0.24733  Uani   1.00
H354   H     0.54405   0.82137   0.37680   0.29700  Uiso   1.00
O355   O     0.72805   0.82830   0.06210   0.10200  Uani   1.00
C356   C     0.72230   0.72215   0.16510   0.23711  Uani   1.00
H357   H     0.70681   0.69487   0.17416   0.28400  Uiso   1.00
C358   C     0.70565   0.73860   0.13350   0.24733  Uani   1.00
H359   H     0.67863   0.72268   0.12320   0.29700  Uiso   1.00
O360   O     0.67170   0.89975   0.06210   0.10200  Uani   1.00
C361   C     0.77785   0.50015   0.16510   0.23711  Uani   1.00
H362   H     0.80513   0.51194   0.17416   0.28400  Uiso   1.00
C363   C     0.76140   0.96705   0.13350   0.24733  Uani   1.00
H364   H     0.77732   0.95595   0.12320   0.29700  Uiso   1.00
O365   O     0.60025   0.77195   0.06210   0.10200  Uani   1.00
C366   C     0.99985   0.77770   0.16510   0.23711  Uani   1.00
H367   H     0.98806   0.79319   0.17416   0.28400  Uiso   1.00
C368   C     0.53295   0.79435   0.13350   0.24733  Uani   1.00
H369   H     0.54405   0.82137   0.12320   0.29700  Uiso   1.00
O370   O     0.67170   0.77195   0.43790   0.10200  Uani   1.00
C371   C     0.77785   0.77770   0.33490   0.23711  Uani   1.00
H372   H     0.80513   0.79319   0.32584   0.28400  Uiso   1.00
C373   C     0.76140   0.79435   0.36650   0.24733  Uani   1.00
H374   H     0.77732   0.82137   0.37680   0.29700  Uiso   1.00
O375   O     0.60025   0.82830   0.43790   0.10200  Uani   1.00
C376   C     0.99985   0.72215   0.33490   0.23711  Uani   1.00
H377   H     0.98806   0.69487   0.32584   0.28400  Uiso   1.00
C378   C     0.53295   0.73860   0.36650   0.24733  Uani   1.00
H379   H     0.54405   0.72268   0.37680   0.29700  Uiso   1.00
O380   O     0.72805   0.89975   0.43790   0.10200  Uani   1.00
C381   C     0.72230   0.50015   0.33490   0.23711  Uani   1.00
H382   H     0.70681   0.51194   0.32584   0.28400  Uiso   1.00
C383   C     0.70565   0.96705   0.36650   0.24733  Uani   1.00
H384   H     0.67863   0.95595   0.37680   0.29700  Uiso   1.00
O385   O     0.67170   0.77195   0.06210   0.10200  Uani   1.00
C386   C     0.77785   0.77770   0.16510   0.23711  Uani   1.00
H387   H     0.80513   0.79319   0.17416   0.28400  Uiso   1.00
C388   C     0.76140   0.79435   0.13350   0.24733  Uani   1.00
H389   H     0.77732   0.82137   0.12320   0.29700  Uiso   1.00
O390   O     0.60025   0.82830   0.06210   0.10200  Uani   1.00
C391   C     0.99985   0.72215   0.16510   0.23711  Uani   1.00
H392   H     0.98806   0.69487   0.17416   0.28400  Uiso   1.00
C393   C     0.53295   0.73860   0.13350   0.24733  Uani   1.00
H394   H     0.54405   0.72268   0.12320   0.29700  Uiso   1.00
O395   O     0.72805   0.89975   0.06210   0.10200  Uani   1.00
C396   C     0.72230   0.50015   0.16510   0.23711  Uani   1.00
H397   H     0.70681   0.51194   0.17416   0.28400  Uiso   1.00
C398   C     0.70565   0.96705   0.13350   0.24733  Uani   1.00
H399   H     0.67863   0.95595   0.12320   0.29700  Uiso   1.00
Fe400  Fe    0.72331   0.86166   0.00000   0.06044  Uani   1.00
O401   O     0.78230   0.89115   0.00000   0.08956  Uani   1.00
Fe402  Fe    0.63834   0.86166   0.00000   0.06044  Uani   1.00
O403   O     0.60885   0.89115   0.00000   0.08956  Uani   1.00
Fe404  Fe    0.63834   0.77669   0.00000   0.06044  Uani   1.00
O405   O     0.60885   0.71770   0.00000   0.08956  Uani   1.00
O406   O     0.66667   0.83333   0.00000   0.05067  Uani   1.00
C407   C     0.81300   0.68700   0.28100   0.05756  Uani   1.00
C408   C     0.72428   0.77572   0.38445   0.06611  Uani   1.00
C409   C     0.77710   0.72290   0.28130   0.06667  Uani   1.00
C410   C     0.75885   0.74115   0.31540   0.07122  Uani   1.00
C411   C     0.70660   0.79340   0.42085   0.06756  Uani   1.00
C412   C     0.79505   0.70495   0.31205   0.06267  Uani   1.00
H413   H     0.79507   0.70493   0.35420   0.07500  Uiso   1.00
C414   C     0.81300   0.62600   0.28100   0.05756  Uani   1.00
C415   C     0.72428   0.94857   0.38445   0.06611  Uani   1.00
C416   C     0.77710   0.55420   0.28130   0.06667  Uani   1.00
C417   C     0.75885   0.51770   0.31540   0.07122  Uani   1.00
C418   C     0.70660   0.91320   0.42085   0.06756  Uani   1.00
C419   C     0.79505   0.59010   0.31205   0.06267  Uani   1.00
H420   H     0.79507   0.59014   0.35420   0.07500  Uiso   1.00
C421   C     0.87400   0.68700   0.28100   0.05756  Uani   1.00
C422   C     0.55143   0.77572   0.38445   0.06611  Uani   1.00
C423   C     0.94580   0.72290   0.28130   0.06667  Uani   1.00
C424   C     0.98230   0.74115   0.31540   0.07122  Uani   1.00
C425   C     0.58680   0.79340   0.42085   0.06756  Uani   1.00
C426   C     0.90990   0.70495   0.31205   0.06267  Uani   1.00
H427   H     0.90986   0.70493   0.35420   0.07500  Uiso   1.00
C428   C     0.81300   0.68700   0.21900   0.05756  Uani   1.00
C429   C     0.72428   0.77572   0.11555   0.06611  Uani   1.00
C430   C     0.77710   0.72290   0.21870   0.06667  Uani   1.00
C431   C     0.75885   0.74115   0.18460   0.07122  Uani   1.00
C432   C     0.70660   0.79340   0.07915   0.06756  Uani   1.00
C433   C     0.79505   0.70495   0.18795   0.06267  Uani   1.00
H434   H     0.79507   0.70493   0.14580   0.07500  Uiso   1.00
C435   C     0.81300   0.62600   0.21900   0.05756  Uani   1.00
C436   C     0.72428   0.94857   0.11555   0.06611  Uani   1.00
C437   C     0.77710   0.55420   0.21870   0.06667  Uani   1.00
C438   C     0.75885   0.51770   0.18460   0.07122  Uani   1.00
C439   C     0.70660   0.91320   0.07915   0.06756  Uani   1.00
C440   C     0.79505   0.59010   0.18795   0.06267  Uani   1.00
H441   H     0.79507   0.59014   0.14580   0.07500  Uiso   1.00
C442   C     0.87400   0.68700   0.21900   0.05756  Uani   1.00
C443   C     0.55143   0.77572   0.11555   0.06611  Uani   1.00
C444   C     0.94580   0.72290   0.21870   0.06667  Uani   1.00
C445   C     0.98230   0.74115   0.18460   0.07122  Uani   1.00
C446   C     0.58680   0.79340   0.07915   0.06756  Uani   1.00
C447   C     0.90990   0.70495   0.18795   0.06267  Uani   1.00
H448   H     0.90986   0.70493   0.14580   0.07500  Uiso   1.00
C449   C     0.83333   0.66667   0.30735   0.05178  Uani   1.00
H450   H     0.83333   0.66667   0.35174   0.06300  Uiso   1.00
C451   C     0.83333   0.66667   0.19265   0.05178  Uani   1.00
H452   H     0.83333   0.66667   0.14826   0.06300  Uiso   1.00
O453   O     0.22805   0.32830   0.93790   0.10200  Uani   1.00
C454   C     0.22230   0.22215   0.83490   0.23711  Uani   1.00
H455   H     0.20681   0.19487   0.82584   0.28400  Uiso   1.00
C456   C     0.20565   0.23860   0.86650   0.24733  Uani   1.00
H457   H     0.17863   0.22268   0.87680   0.29700  Uiso   1.00
O458   O     0.17170   0.39975   0.93790   0.10200  Uani   1.00
C459   C     0.27785   0.00015   0.83490   0.23711  Uani   1.00
H460   H     0.30513   0.01194   0.82584   0.28400  Uiso   1.00
C461   C     0.26140   0.46705   0.86650   0.24733  Uani   1.00
H462   H     0.27732   0.45595   0.87680   0.29700  Uiso   1.00
O463   O     0.10025   0.27195   0.93790   0.10200  Uani   1.00
C464   C     0.49985   0.27770   0.83490   0.23711  Uani   1.00
H465   H     0.48806   0.29319   0.82584   0.28400  Uiso   1.00
C466   C     0.03295   0.29435   0.86650   0.24733  Uani   1.00
H467   H     0.04405   0.32137   0.87680   0.29700  Uiso   1.00
O468   O     0.22805   0.32830   0.56210   0.10200  Uani   1.00
C469   C     0.22230   0.22215   0.66510   0.23711  Uani   1.00
H470   H     0.20681   0.19487   0.67416   0.28400  Uiso   1.00
C471   C     0.20565   0.23860   0.63350   0.24733  Uani   1.00
H472   H     0.17863   0.22268   0.62320   0.29700  Uiso   1.00
O473   O     0.17170   0.39975   0.56210   0.10200  Uani   1.00
C474   C     0.27785   0.00015   0.66510   0.23711  Uani   1.00
H475   H     0.30513   0.01194   0.67416   0.28400  Uiso   1.00
C476   C     0.26140   0.46705   0.63350   0.24733  Uani   1.00
H477   H     0.27732   0.45595   0.62320   0.29700  Uiso   1.00
O478   O     0.10025   0.27195   0.56210   0.10200  Uani   1.00
C479   C     0.49985   0.27770   0.66510   0.23711  Uani   1.00
H480   H     0.48806   0.29319   0.67416   0.28400  Uiso   1.00
C481   C     0.03295   0.29435   0.63350   0.24733  Uani   1.00
H482   H     0.04405   0.32137   0.62320   0.29700  Uiso   1.00
O483   O     0.17170   0.27195   0.93790   0.10200  Uani   1.00
C484   C     0.27785   0.27770   0.83490   0.23711  Uani   1.00
H485   H     0.30513   0.29319   0.82584   0.28400  Uiso   1.00
C486   C     0.26140   0.29435   0.86650   0.24733  Uani   1.00
H487   H     0.27732   0.32137   0.87680   0.29700  Uiso   1.00
O488   O     0.10025   0.32830   0.93790   0.10200  Uani   1.00
C489   C     0.49985   0.22215   0.83490   0.23711  Uani   1.00
H490   H     0.48806   0.19487   0.82584   0.28400  Uiso   1.00
C491   C     0.03295   0.23860   0.86650   0.24733  Uani   1.00
H492   H     0.04405   0.22268   0.87680   0.29700  Uiso   1.00
O493   O     0.22805   0.39975   0.93790   0.10200  Uani   1.00
C494   C     0.22230   0.00015   0.83490   0.23711  Uani   1.00
H495   H     0.20681   0.01194   0.82584   0.28400  Uiso   1.00
C496   C     0.20565   0.46705   0.86650   0.24733  Uani   1.00
H497   H     0.17863   0.45595   0.87680   0.29700  Uiso   1.00
O498   O     0.17170   0.27195   0.56210   0.10200  Uani   1.00
C499   C     0.27785   0.27770   0.66510   0.23711  Uani   1.00
H500   H     0.30513   0.29319   0.67416   0.28400  Uiso   1.00
C501   C     0.26140   0.29435   0.63350   0.24733  Uani   1.00
H502   H     0.27732   0.32137   0.62320   0.29700  Uiso   1.00
O503   O     0.10025   0.32830   0.56210   0.10200  Uani   1.00
C504   C     0.49985   0.22215   0.66510   0.23711  Uani   1.00
H505   H     0.48806   0.19487   0.67416   0.28400  Uiso   1.00
C506   C     0.03295   0.23860   0.63350   0.24733  Uani   1.00
H507   H     0.04405   0.22268   0.62320   0.29700  Uiso   1.00
O508   O     0.22805   0.39975   0.56210   0.10200  Uani   1.00
C509   C     0.22230   0.00015   0.66510   0.23711  Uani   1.00
H510   H     0.20681   0.01194   0.67416   0.28400  Uiso   1.00
C511   C     0.20565   0.46705   0.63350   0.24733  Uani   1.00
H512   H     0.17863   0.45595   0.62320   0.29700  Uiso   1.00
Fe513  Fe    0.22331   0.36166   0.50000   0.06044  Uani   1.00
O514   O     0.28230   0.39115   0.50000   0.08956  Uani   1.00
Fe515  Fe    0.13834   0.36166   0.50000   0.06044  Uani   1.00
O516   O     0.10885   0.39115   0.50000   0.08956  Uani   1.00
Fe517  Fe    0.13834   0.27669   0.50000   0.06044  Uani   1.00
O518   O     0.10885   0.21770   0.50000   0.08956  Uani   1.00
O519   O     0.16667   0.33333   0.50000   0.05067  Uani   1.00
C520   C     0.31300   0.18700   0.78100   0.05756  Uani   1.00
C521   C     0.22428   0.27572   0.88445   0.06611  Uani   1.00
C522   C     0.27710   0.22290   0.78130   0.06667  Uani   1.00
C523   C     0.25885   0.24115   0.81540   0.07122  Uani   1.00
C524   C     0.20660   0.29340   0.92085   0.06756  Uani   1.00
C525   C     0.29505   0.20495   0.81205   0.06267  Uani   1.00
H526   H     0.29507   0.20493   0.85420   0.07500  Uiso   1.00
C527   C     0.31300   0.12600   0.78100   0.05756  Uani   1.00
C528   C     0.22428   0.44857   0.88445   0.06611  Uani   1.00
C529   C     0.27710   0.05420   0.78130   0.06667  Uani   1.00
C530   C     0.25885   0.01770   0.81540   0.07122  Uani   1.00
C531   C     0.20660   0.41320   0.92085   0.06756  Uani   1.00
C532   C     0.29505   0.09010   0.81205   0.06267  Uani   1.00
H533   H     0.29507   0.09014   0.85420   0.07500  Uiso   1.00
C534   C     0.37400   0.18700   0.78100   0.05756  Uani   1.00
C535   C     0.05143   0.27572   0.88445   0.06611  Uani   1.00
C536   C     0.44580   0.22290   0.78130   0.06667  Uani   1.00
C537   C     0.48230   0.24115   0.81540   0.07122  Uani   1.00
C538   C     0.08680   0.29340   0.92085   0.06756  Uani   1.00
C539   C     0.40990   0.20495   0.81205   0.06267  Uani   1.00
H540   H     0.40986   0.20493   0.85420   0.07500  Uiso   1.00
C541   C     0.31300   0.18700   0.71900   0.05756  Uani   1.00
C542   C     0.22428   0.27572   0.61555   0.06611  Uani   1.00
C543   C     0.27710   0.22290   0.71870   0.06667  Uani   1.00
C544   C     0.25885   0.24115   0.68460   0.07122  Uani   1.00
C545   C     0.20660   0.29340   0.57915   0.06756  Uani   1.00
C546   C     0.29505   0.20495   0.68795   0.06267  Uani   1.00
H547   H     0.29507   0.20493   0.64580   0.07500  Uiso   1.00
C548   C     0.31300   0.12600   0.71900   0.05756  Uani   1.00
C549   C     0.22428   0.44857   0.61555   0.06611  Uani   1.00
C550   C     0.27710   0.05420   0.71870   0.06667  Uani   1.00
C551   C     0.25885   0.01770   0.68460   0.07122  Uani   1.00
C552   C     0.20660   0.41320   0.57915   0.06756  Uani   1.00
C553   C     0.29505   0.09010   0.68795   0.06267  Uani   1.00
H554   H     0.29507   0.09014   0.64580   0.07500  Uiso   1.00
C555   C     0.37400   0.18700   0.71900   0.05756  Uani   1.00
C556   C     0.05143   0.27572   0.61555   0.06611  Uani   1.00
C557   C     0.44580   0.22290   0.71870   0.06667  Uani   1.00
C558   C     0.48230   0.24115   0.68460   0.07122  Uani   1.00
C559   C     0.08680   0.29340   0.57915   0.06756  Uani   1.00
C560   C     0.40990   0.20495   0.68795   0.06267  Uani   1.00
H561   H     0.40986   0.20493   0.64580   0.07500  Uiso   1.00
C562   C     0.33333   0.16667   0.80735   0.05178  Uani   1.00
H563   H     0.33333   0.16667   0.85174   0.06300  Uiso   1.00
C564   C     0.33333   0.16667   0.69265   0.05178  Uani   1.00
H565   H     0.33333   0.16667   0.64826   0.06300  Uiso   1.00
O566   O     0.72805   0.32830   0.93790   0.10200  Uani   1.00
C567   C     0.72230   0.22215   0.83490   0.23711  Uani   1.00
H568   H     0.70681   0.19487   0.82584   0.28400  Uiso   1.00
C569   C     0.70565   0.23860   0.86650   0.24733  Uani   1.00
H570   H     0.67863   0.22268   0.87680   0.29700  Uiso   1.00
O571   O     0.67170   0.39975   0.93790   0.10200  Uani   1.00
C572   C     0.77785   0.00015   0.83490   0.23711  Uani   1.00
H573   H     0.80513   0.01194   0.82584   0.28400  Uiso   1.00
C574   C     0.76140   0.46705   0.86650   0.24733  Uani   1.00
H575   H     0.77732   0.45595   0.87680   0.29700  Uiso   1.00
O576   O     0.60025   0.27195   0.93790   0.10200  Uani   1.00
C577   C     0.99985   0.27770   0.83490   0.23711  Uani   1.00
H578   H     0.98806   0.29319   0.82584   0.28400  Uiso   1.00
C579   C     0.53295   0.29435   0.86650   0.24733  Uani   1.00
H580   H     0.54405   0.32137   0.87680   0.29700  Uiso   1.00
O581   O     0.72805   0.32830   0.56210   0.10200  Uani   1.00
C582   C     0.72230   0.22215   0.66510   0.23711  Uani   1.00
H583   H     0.70681   0.19487   0.67416   0.28400  Uiso   1.00
C584   C     0.70565   0.23860   0.63350   0.24733  Uani   1.00
H585   H     0.67863   0.22268   0.62320   0.29700  Uiso   1.00
O586   O     0.67170   0.39975   0.56210   0.10200  Uani   1.00
C587   C     0.77785   0.00015   0.66510   0.23711  Uani   1.00
H588   H     0.80513   0.01194   0.67416   0.28400  Uiso   1.00
C589   C     0.76140   0.46705   0.63350   0.24733  Uani   1.00
H590   H     0.77732   0.45595   0.62320   0.29700  Uiso   1.00
O591   O     0.60025   0.27195   0.56210   0.10200  Uani   1.00
C592   C     0.99985   0.27770   0.66510   0.23711  Uani   1.00
H593   H     0.98806   0.29319   0.67416   0.28400  Uiso   1.00
C594   C     0.53295   0.29435   0.63350   0.24733  Uani   1.00
H595   H     0.54405   0.32137   0.62320   0.29700  Uiso   1.00
O596   O     0.67170   0.27195   0.93790   0.10200  Uani   1.00
C597   C     0.77785   0.27770   0.83490   0.23711  Uani   1.00
H598   H     0.80513   0.29319   0.82584   0.28400  Uiso   1.00
C599   C     0.76140   0.29435   0.86650   0.24733  Uani   1.00
H600   H     0.77732   0.32137   0.87680   0.29700  Uiso   1.00
O601   O     0.60025   0.32830   0.93790   0.10200  Uani   1.00
C602   C     0.99985   0.22215   0.83490   0.23711  Uani   1.00
H603   H     0.98806   0.19487   0.82584   0.28400  Uiso   1.00
C604   C     0.53295   0.23860   0.86650   0.24733  Uani   1.00
H605   H     0.54405   0.22268   0.87680   0.29700  Uiso   1.00
O606   O     0.72805   0.39975   0.93790   0.10200  Uani   1.00
C607   C     0.72230   0.00015   0.83490   0.23711  Uani   1.00
H608   H     0.70681   0.01194   0.82584   0.28400  Uiso   1.00
C609   C     0.70565   0.46705   0.86650   0.24733  Uani   1.00
H610   H     0.67863   0.45595   0.87680   0.29700  Uiso   1.00
O611   O     0.67170   0.27195   0.56210   0.10200  Uani   1.00
C612   C     0.77785   0.27770   0.66510   0.23711  Uani   1.00
H613   H     0.80513   0.29319   0.67416   0.28400  Uiso   1.00
C614   C     0.76140   0.29435   0.63350   0.24733  Uani   1.00
H615   H     0.77732   0.32137   0.62320   0.29700  Uiso   1.00
O616   O     0.60025   0.32830   0.56210   0.10200  Uani   1.00
C617   C     0.99985   0.22215   0.66510   0.23711  Uani   1.00
H618   H     0.98806   0.19487   0.67416   0.28400  Uiso   1.00
C619   C     0.53295   0.23860   0.63350   0.24733  Uani   1.00
H620   H     0.54405   0.22268   0.62320   0.29700  Uiso   1.00
O621   O     0.72805   0.39975   0.56210   0.10200  Uani   1.00
C622   C     0.72230   0.00015   0.66510   0.23711  Uani   1.00
H623   H     0.70681   0.01194   0.67416   0.28400  Uiso   1.00
C624   C     0.70565   0.46705   0.63350   0.24733  Uani   1.00
H625   H     0.67863   0.45595   0.62320   0.29700  Uiso   1.00
Fe626  Fe    0.72331   0.36166   0.50000   0.06044  Uani   1.00
O627   O     0.78230   0.39115   0.50000   0.08956  Uani   1.00
Fe628  Fe    0.63834   0.36166   0.50000   0.06044  Uani   1.00
O629   O     0.60885   0.39115   0.50000   0.08956  Uani   1.00
Fe630  Fe    0.63834   0.27669   0.50000   0.06044  Uani   1.00
O631   O     0.60885   0.21770   0.50000   0.08956  Uani   1.00
O632   O     0.66667   0.33333   0.50000   0.05067  Uani   1.00
C633   C     0.81300   0.18700   0.78100   0.05756  Uani   1.00
C634   C     0.72428   0.27572   0.88445   0.06611  Uani   1.00
C635   C     0.77710   0.22290   0.78130   0.06667  Uani   1.00
C636   C     0.75885   0.24115   0.81540   0.07122  Uani   1.00
C637   C     0.70660   0.29340   0.92085   0.06756  Uani   1.00
C638   C     0.79505   0.20495   0.81205   0.06267  Uani   1.00
H639   H     0.79507   0.20493   0.85420   0.07500  Uiso   1.00
C640   C     0.81300   0.12600   0.78100   0.05756  Uani   1.00
C641   C     0.72428   0.44857   0.88445   0.06611  Uani   1.00
C642   C     0.77710   0.05420   0.78130   0.06667  Uani   1.00
C643   C     0.75885   0.01770   0.81540   0.07122  Uani   1.00
C644   C     0.70660   0.41320   0.92085   0.06756  Uani   1.00
C645   C     0.79505   0.09010   0.81205   0.06267  Uani   1.00
H646   H     0.79507   0.09014   0.85420   0.07500  Uiso   1.00
C647   C     0.87400   0.18700   0.78100   0.05756  Uani   1.00
C648   C     0.55143   0.27572   0.88445   0.06611  Uani   1.00
C649   C     0.94580   0.22290   0.78130   0.06667  Uani   1.00
C650   C     0.98230   0.24115   0.81540   0.07122  Uani   1.00
C651   C     0.58680   0.29340   0.92085   0.06756  Uani   1.00
C652   C     0.90990   0.20495   0.81205   0.06267  Uani   1.00
H653   H     0.90986   0.20493   0.85420   0.07500  Uiso   1.00
C654   C     0.81300   0.18700   0.71900   0.05756  Uani   1.00
C655   C     0.72428   0.27572   0.61555   0.06611  Uani   1.00
C656   C     0.77710   0.22290   0.71870   0.06667  Uani   1.00
C657   C     0.75885   0.24115   0.68460   0.07122  Uani   1.00
C658   C     0.70660   0.29340   0.57915   0.06756  Uani   1.00
C659   C     0.79505   0.20495   0.68795   0.06267  Uani   1.00
H660   H     0.79507   0.20493   0.64580   0.07500  Uiso   1.00
C661   C     0.81300   0.12600   0.71900   0.05756  Uani   1.00
C662   C     0.72428   0.44857   0.61555   0.06611  Uani   1.00
C663   C     0.77710   0.05420   0.71870   0.06667  Uani   1.00
C664   C     0.75885   0.01770   0.68460   0.07122  Uani   1.00
C665   C     0.70660   0.41320   0.57915   0.06756  Uani   1.00
C666   C     0.79505   0.09010   0.68795   0.06267  Uani   1.00
H667   H     0.79507   0.09014   0.64580   0.07500  Uiso   1.00
C668   C     0.87400   0.18700   0.71900   0.05756  Uani   1.00
C669   C     0.55143   0.27572   0.61555   0.06611  Uani   1.00
C670   C     0.94580   0.22290   0.71870   0.06667  Uani   1.00
C671   C     0.98230   0.24115   0.68460   0.07122  Uani   1.00
C672   C     0.58680   0.29340   0.57915   0.06756  Uani   1.00
C673   C     0.90990   0.20495   0.68795   0.06267  Uani   1.00
H674   H     0.90986   0.20493   0.64580   0.07500  Uiso   1.00
C675   C     0.83333   0.16667   0.80735   0.05178  Uani   1.00
H676   H     0.83333   0.16667   0.85174   0.06300  Uiso   1.00
C677   C     0.83333   0.16667   0.69265   0.05178  Uani   1.00
H678   H     0.83333   0.16667   0.64826   0.06300  Uiso   1.00
O679   O     0.22805   0.82830   0.93790   0.10200  Uani   1.00
C680   C     0.22230   0.72215   0.83490   0.23711  Uani   1.00
H681   H     0.20681   0.69487   0.82584   0.28400  Uiso   1.00
C682   C     0.20565   0.73860   0.86650   0.24733  Uani   1.00
H683   H     0.17863   0.72268   0.87680   0.29700  Uiso   1.00
O684   O     0.17170   0.89975   0.93790   0.10200  Uani   1.00
C685   C     0.27785   0.50015   0.83490   0.23711  Uani   1.00
H686   H     0.30513   0.51194   0.82584   0.28400  Uiso   1.00
C687   C     0.26140   0.96705   0.86650   0.24733  Uani   1.00
H688   H     0.27732   0.95595   0.87680   0.29700  Uiso   1.00
O689   O     0.10025   0.77195   0.93790   0.10200  Uani   1.00
C690   C     0.49985   0.77770   0.83490   0.23711  Uani   1.00
H691   H     0.48806   0.79319   0.82584   0.28400  Uiso   1.00
C692   C     0.03295   0.79435   0.86650   0.24733  Uani   1.00
H693   H     0.04405   0.82137   0.87680   0.29700  Uiso   1.00
O694   O     0.22805   0.82830   0.56210   0.10200  Uani   1.00
C695   C     0.22230   0.72215   0.66510   0.23711  Uani   1.00
H696   H     0.20681   0.69487   0.67416   0.28400  Uiso   1.00
C697   C     0.20565   0.73860   0.63350   0.24733  Uani   1.00
H698   H     0.17863   0.72268   0.62320   0.29700  Uiso   1.00
O699   O     0.17170   0.89975   0.56210   0.10200  Uani   1.00
C700   C     0.27785   0.50015   0.66510   0.23711  Uani   1.00
H701   H     0.30513   0.51194   0.67416   0.28400  Uiso   1.00
C702   C     0.26140   0.96705   0.63350   0.24733  Uani   1.00
H703   H     0.27732   0.95595   0.62320   0.29700  Uiso   1.00
O704   O     0.10025   0.77195   0.56210   0.10200  Uani   1.00
C705   C     0.49985   0.77770   0.66510   0.23711  Uani   1.00
H706   H     0.48806   0.79319   0.67416   0.28400  Uiso   1.00
C707   C     0.03295   0.79435   0.63350   0.24733  Uani   1.00
H708   H     0.04405   0.82137   0.62320   0.29700  Uiso   1.00
O709   O     0.17170   0.77195   0.93790   0.10200  Uani   1.00
C710   C     0.27785   0.77770   0.83490   0.23711  Uani   1.00
H711   H     0.30513   0.79319   0.82584   0.28400  Uiso   1.00
C712   C     0.26140   0.79435   0.86650   0.24733  Uani   1.00
H713   H     0.27732   0.82137   0.87680   0.29700  Uiso   1.00
O714   O     0.10025   0.82830   0.93790   0.10200  Uani   1.00
C715   C     0.49985   0.72215   0.83490   0.23711  Uani   1.00
H716   H     0.48806   0.69487   0.82584   0.28400  Uiso   1.00
C717   C     0.03295   0.73860   0.86650   0.24733  Uani   1.00
H718   H     0.04405   0.72268   0.87680   0.29700  Uiso   1.00
O719   O     0.22805   0.89975   0.93790   0.10200  Uani   1.00
C720   C     0.22230   0.50015   0.83490   0.23711  Uani   1.00
H721   H     0.20681   0.51194   0.82584   0.28400  Uiso   1.00
C722   C     0.20565   0.96705   0.86650   0.24733  Uani   1.00
H723   H     0.17863   0.95595   0.87680   0.29700  Uiso   1.00
O724   O     0.17170   0.77195   0.56210   0.10200  Uani   1.00
C725   C     0.27785   0.77770   0.66510   0.23711  Uani   1.00
H726   H     0.30513   0.79319   0.67416   0.28400  Uiso   1.00
C727   C     0.26140   0.79435   0.63350   0.24733  Uani   1.00
H728   H     0.27732   0.82137   0.62320   0.29700  Uiso   1.00
O729   O     0.10025   0.82830   0.56210   0.10200  Uani   1.00
C730   C     0.49985   0.72215   0.66510   0.23711  Uani   1.00
H731   H     0.48806   0.69487   0.67416   0.28400  Uiso   1.00
C732   C     0.03295   0.73860   0.63350   0.24733  Uani   1.00
H733   H     0.04405   0.72268   0.62320   0.29700  Uiso   1.00
O734   O     0.22805   0.89975   0.56210   0.10200  Uani   1.00
C735   C     0.22230   0.50015   0.66510   0.23711  Uani   1.00
H736   H     0.20681   0.51194   0.67416   0.28400  Uiso   1.00
C737   C     0.20565   0.96705   0.63350   0.24733  Uani   1.00
H738   H     0.17863   0.95595   0.62320   0.29700  Uiso   1.00
Fe739  Fe    0.22331   0.86166   0.50000   0.06044  Uani   1.00
O740   O     0.28230   0.89115   0.50000   0.08956  Uani   1.00
Fe741  Fe    0.13834   0.86166   0.50000   0.06044  Uani   1.00
O742   O     0.10885   0.89115   0.50000   0.08956  Uani   1.00
Fe743  Fe    0.13834   0.77669   0.50000   0.06044  Uani   1.00
O744   O     0.10885   0.71770   0.50000   0.08956  Uani   1.00
O745   O     0.16667   0.83333   0.50000   0.05067  Uani   1.00
C746   C     0.31300   0.68700   0.78100   0.05756  Uani   1.00
C747   C     0.22428   0.77572   0.88445   0.06611  Uani   1.00
C748   C     0.27710   0.72290   0.78130   0.06667  Uani   1.00
C749   C     0.25885   0.74115   0.81540   0.07122  Uani   1.00
C750   C     0.20660   0.79340   0.92085   0.06756  Uani   1.00
C751   C     0.29505   0.70495   0.81205   0.06267  Uani   1.00
H752   H     0.29507   0.70493   0.85420   0.07500  Uiso   1.00
C753   C     0.31300   0.62600   0.78100   0.05756  Uani   1.00
C754   C     0.22428   0.94857   0.88445   0.06611  Uani   1.00
C755   C     0.27710   0.55420   0.78130   0.06667  Uani   1.00
C756   C     0.25885   0.51770   0.81540   0.07122  Uani   1.00
C757   C     0.20660   0.91320   0.92085   0.06756  Uani   1.00
C758   C     0.29505   0.59010   0.81205   0.06267  Uani   1.00
H759   H     0.29507   0.59014   0.85420   0.07500  Uiso   1.00
C760   C     0.37400   0.68700   0.78100   0.05756  Uani   1.00
C761   C     0.05143   0.77572   0.88445   0.06611  Uani   1.00
C762   C     0.44580   0.72290   0.78130   0.06667  Uani   1.00
C763   C     0.48230   0.74115   0.81540   0.07122  Uani   1.00
C764   C     0.08680   0.79340   0.92085   0.06756  Uani   1.00
C765   C     0.40990   0.70495   0.81205   0.06267  Uani   1.00
H766   H     0.40986   0.70493   0.85420   0.07500  Uiso   1.00
C767   C     0.31300   0.68700   0.71900   0.05756  Uani   1.00
C768   C     0.22428   0.77572   0.61555   0.06611  Uani   1.00
C769   C     0.27710   0.72290   0.71870   0.06667  Uani   1.00
C770   C     0.25885   0.74115   0.68460   0.07122  Uani   1.00
C771   C     0.20660   0.79340   0.57915   0.06756  Uani   1.00
C772   C     0.29505   0.70495   0.68795   0.06267  Uani   1.00
H773   H     0.29507   0.70493   0.64580   0.07500  Uiso   1.00
C774   C     0.31300   0.62600   0.71900   0.05756  Uani   1.00
C775   C     0.22428   0.94857   0.61555   0.06611  Uani   1.00
C776   C     0.27710   0.55420   0.71870   0.06667  Uani   1.00
C777   C     0.25885   0.51770   0.68460   0.07122  Uani   1.00
C778   C     0.20660   0.91320   0.57915   0.06756  Uani   1.00
C779   C     0.29505   0.59010   0.68795   0.06267  Uani   1.00
H780   H     0.29507   0.59014   0.64580   0.07500  Uiso   1.00
C781   C     0.37400   0.68700   0.71900   0.05756  Uani   1.00
C782   C     0.05143   0.77572   0.61555   0.06611  Uani   1.00
C783   C     0.44580   0.72290   0.71870   0.06667  Uani   1.00
C784   C     0.48230   0.74115   0.68460   0.07122  Uani   1.00
C785   C     0.08680   0.79340   0.57915   0.06756  Uani   1.00
C786   C     0.40990   0.70495   0.68795   0.06267  Uani   1.00
H787   H     0.40986   0.70493   0.64580   0.07500  Uiso   1.00
C788   C     0.33333   0.66667   0.80735   0.05178  Uani   1.00
H789   H     0.33333   0.66667   0.85174   0.06300  Uiso   1.00
C790   C     0.33333   0.66667   0.69265   0.05178  Uani   1.00
H791   H     0.33333   0.66667   0.64826   0.06300  Uiso   1.00
O792   O     0.72805   0.82830   0.93790   0.10200  Uani   1.00
C793   C     0.72230   0.72215   0.83490   0.23711  Uani   1.00
H794   H     0.70681   0.69487   0.82584   0.28400  Uiso   1.00
C795   C     0.70565   0.73860   0.86650   0.24733  Uani   1.00
H796   H     0.67863   0.72268   0.87680   0.29700  Uiso   1.00
O797   O     0.67170   0.89975   0.93790   0.10200  Uani   1.00
C798   C     0.77785   0.50015   0.83490   0.23711  Uani   1.00
H799   H     0.80513   0.51194   0.82584   0.28400  Uiso   1.00
C800   C     0.76140   0.96705   0.86650   0.24733  Uani   1.00
H801   H     0.77732   0.95595   0.87680   0.29700  Uiso   1.00
O802   O     0.60025   0.77195   0.93790   0.10200  Uani   1.00
C803   C     0.99985   0.77770   0.83490   0.23711  Uani   1.00
H804   H     0.98806   0.79319   0.82584   0.28400  Uiso   1.00
C805   C     0.53295   0.79435   0.86650   0.24733  Uani   1.00
H806   H     0.54405   0.82137   0.87680   0.29700  Uiso   1.00
O807   O     0.72805   0.82830   0.56210   0.10200  Uani   1.00
C808   C     0.72230   0.72215   0.66510   0.23711  Uani   1.00
H809   H     0.70681   0.69487   0.67416   0.28400  Uiso   1.00
C810   C     0.70565   0.73860   0.63350   0.24733  Uani   1.00
H811   H     0.67863   0.72268   0.62320   0.29700  Uiso   1.00
O812   O     0.67170   0.89975   0.56210   0.10200  Uani   1.00
C813   C     0.77785   0.50015   0.66510   0.23711  Uani   1.00
H814   H     0.80513   0.51194   0.67416   0.28400  Uiso   1.00
C815   C     0.76140   0.96705   0.63350   0.24733  Uani   1.00
H816   H     0.77732   0.95595   0.62320   0.29700  Uiso   1.00
O817   O     0.60025   0.77195   0.56210   0.10200  Uani   1.00
C818   C     0.99985   0.77770   0.66510   0.23711  Uani   1.00
H819   H     0.98806   0.79319   0.67416   0.28400  Uiso   1.00
C820   C     0.53295   0.79435   0.63350   0.24733  Uani   1.00
H821   H     0.54405   0.82137   0.62320   0.29700  Uiso   1.00
O822   O     0.67170   0.77195   0.93790   0.10200  Uani   1.00
C823   C     0.77785   0.77770   0.83490   0.23711  Uani   1.00
H824   H     0.80513   0.79319   0.82584   0.28400  Uiso   1.00
C825   C     0.76140   0.79435   0.86650   0.24733  Uani   1.00
H826   H     0.77732   0.82137   0.87680   0.29700  Uiso   1.00
O827   O     0.60025   0.82830   0.93790   0.10200  Uani   1.00
C828   C     0.99985   0.72215   0.83490   0.23711  Uani   1.00
H829   H     0.98806   0.69487   0.82584   0.28400  Uiso   1.00
C830   C     0.53295   0.73860   0.86650   0.24733  Uani   1.00
H831   H     0.54405   0.72268   0.87680   0.29700  Uiso   1.00
O832   O     0.72805   0.89975   0.93790   0.10200  Uani   1.00
C833   C     0.72230   0.50015   0.83490   0.23711  Uani   1.00
H834   H     0.70681   0.51194   0.82584   0.28400  Uiso   1.00
C835   C     0.70565   0.96705   0.86650   0.24733  Uani   1.00
H836   H     0.67863   0.95595   0.87680   0.29700  Uiso   1.00
O837   O     0.67170   0.77195   0.56210   0.10200  Uani   1.00
C838   C     0.77785   0.77770   0.66510   0.23711  Uani   1.00
H839   H     0.80513   0.79319   0.67416   0.28400  Uiso   1.00
C840   C     0.76140   0.79435   0.63350   0.24733  Uani   1.00
H841   H     0.77732   0.82137   0.62320   0.29700  Uiso   1.00
O842   O     0.60025   0.82830   0.56210   0.10200  Uani   1.00
C843   C     0.99985   0.72215   0.66510   0.23711  Uani   1.00
H844   H     0.98806   0.69487   0.67416   0.28400  Uiso   1.00
C845   C     0.53295   0.73860   0.63350   0.24733  Uani   1.00
H846   H     0.54405   0.72268   0.62320   0.29700  Uiso   1.00
O847   O     0.72805   0.89975   0.56210   0.10200  Uani   1.00
C848   C     0.72230   0.50015   0.66510   0.23711  Uani   1.00
H849   H     0.70681   0.51194   0.67416   0.28400  Uiso   1.00
C850   C     0.70565   0.96705   0.63350   0.24733  Uani   1.00
H851   H     0.67863   0.95595   0.62320   0.29700  Uiso   1.00
Fe852  Fe    0.72331   0.86166   0.50000   0.06044  Uani   1.00
O853   O     0.78230   0.89115   0.50000   0.08956  Uani   1.00
Fe854  Fe    0.63834   0.86166   0.50000   0.06044  Uani   1.00
O855   O     0.60885   0.89115   0.50000   0.08956  Uani   1.00
Fe856  Fe    0.63834   0.77669   0.50000   0.06044  Uani   1.00
O857   O     0.60885   0.71770   0.50000   0.08956  Uani   1.00
O858   O     0.66667   0.83333   0.50000   0.05067  Uani   1.00
C859   C     0.81300   0.68700   0.78100   0.05756  Uani   1.00
C860   C     0.72428   0.77572   0.88445   0.06611  Uani   1.00
C861   C     0.77710   0.72290   0.78130   0.06667  Uani   1.00
C862   C     0.75885   0.74115   0.81540   0.07122  Uani   1.00
C863   C     0.70660   0.79340   0.92085   0.06756  Uani   1.00
C864   C     0.79505   0.70495   0.81205   0.06267  Uani   1.00
H865   H     0.79507   0.70493   0.85420   0.07500  Uiso   1.00
C866   C     0.81300   0.62600   0.78100   0.05756  Uani   1.00
C867   C     0.72428   0.94857   0.88445   0.06611  Uani   1.00
C868   C     0.77710   0.55420   0.78130   0.06667  Uani   1.00
C869   C     0.75885   0.51770   0.81540   0.07122  Uani   1.00
C870   C     0.70660   0.91320   0.92085   0.06756  Uani   1.00
C871   C     0.79505   0.59010   0.81205   0.06267  Uani   1.00
H872   H     0.79507   0.59014   0.85420   0.07500  Uiso   1.00
C873   C     0.87400   0.68700   0.78100   0.05756  Uani   1.00
C874   C     0.55143   0.77572   0.88445   0.06611  Uani   1.00
C875   C     0.94580   0.72290   0.78130   0.06667  Uani   1.00
C876   C     0.98230   0.74115   0.81540   0.07122  Uani   1.00
C877   C     0.58680   0.79340   0.92085   0.06756  Uani   1.00
C878   C     0.90990   0.70495   0.81205   0.06267  Uani   1.00
H879   H     0.90986   0.70493   0.85420   0.07500  Uiso   1.00
C880   C     0.81300   0.68700   0.71900   0.05756  Uani   1.00
C881   C     0.72428   0.77572   0.61555   0.06611  Uani   1.00
C882   C     0.77710   0.72290   0.71870   0.06667  Uani   1.00
C883   C     0.75885   0.74115   0.68460   0.07122  Uani   1.00
C884   C     0.70660   0.79340   0.57915   0.06756  Uani   1.00
C885   C     0.79505   0.70495   0.68795   0.06267  Uani   1.00
H886   H     0.79507   0.70493   0.64580   0.07500  Uiso   1.00
C887   C     0.81300   0.62600   0.71900   0.05756  Uani   1.00
C888   C     0.72428   0.94857   0.61555   0.06611  Uani   1.00
C889   C     0.77710   0.55420   0.71870   0.06667  Uani   1.00
C890   C     0.75885   0.51770   0.68460   0.07122  Uani   1.00
C891   C     0.70660   0.91320   0.57915   0.06756  Uani   1.00
C892   C     0.79505   0.59010   0.68795   0.06267  Uani   1.00
H893   H     0.79507   0.59014   0.64580   0.07500  Uiso   1.00
C894   C     0.87400   0.68700   0.71900   0.05756  Uani   1.00
C895   C     0.55143   0.77572   0.61555   0.06611  Uani   1.00
C896   C     0.94580   0.72290   0.71870   0.06667  Uani   1.00
C897   C     0.98230   0.74115   0.68460   0.07122  Uani   1.00
C898   C     0.58680   0.79340   0.57915   0.06756  Uani   1.00
C899   C     0.90990   0.70495   0.68795   0.06267  Uani   1.00
H900   H     0.90986   0.70493   0.64580   0.07500  Uiso   1.00
C901   C     0.83333   0.66667   0.80735   0.05178  Uani   1.00
H902   H     0.83333   0.66667   0.85174   0.06300  Uiso   1.00
C903   C     0.83333   0.66667   0.69265   0.05178  Uani   1.00
H904   H     0.83333   0.66667   0.64826   0.06300  Uiso   1.00
loop_
_atom_site_aniso_label
_atom_site_aniso_U_11
_atom_site_aniso_U_22
_atom_site_aniso_U_33
_atom_site_aniso_U_12
_atom_site_aniso_U_13
_atom_site_aniso_U_23
O1        0.06800   0.07200   0.15800   0.02900   0.02300  -0.02200
C2        0.08300   0.11500   0.45400   0.00500   0.11700  -0.12200
C4        0.09700   0.11900   0.47000   0.01200   0.10000  -0.14400
O6        0.07200   0.08200   0.15800   0.04300   0.02200   0.04500
C7        0.11500   0.18800   0.45400   0.11000   0.12200   0.23900
C9        0.11900   0.19200   0.47000   0.10700   0.14400   0.24400
O11       0.08200   0.06800   0.15800   0.03900  -0.04500  -0.02300
C12       0.18800   0.08300   0.45400   0.07800  -0.23900  -0.11700
C14       0.19200   0.09700   0.47000   0.08500  -0.24400  -0.10000
O16       0.06800   0.07200   0.15800   0.02900  -0.02300   0.02200
C17       0.08300   0.11500   0.45400   0.00500  -0.11700   0.12200
C19       0.09700   0.11900   0.47000   0.01200  -0.10000   0.14400
O21       0.07200   0.08200   0.15800   0.04300  -0.02200  -0.04500
C22       0.11500   0.18800   0.45400   0.11000  -0.12200  -0.23900
C24       0.11900   0.19200   0.47000   0.10700  -0.14400  -0.24400
O26       0.08200   0.06800   0.15800   0.03900   0.04500   0.02300
C27       0.18800   0.08300   0.45400   0.07800   0.23900   0.11700
C29       0.19200   0.09700   0.47000   0.08500   0.24400   0.10000
O31       0.07200   0.06800   0.15800   0.02900   0.02200  -0.02300
C32       0.11500   0.08300   0.45400   0.00500   0.12200  -0.11700
C34       0.11900   0.09700   0.47000   0.01200   0.14400  -0.10000
O36       0.08200   0.07200   0.15800   0.04300  -0.04500  -0.02200
C37       0.18800   0.11500   0.45400   0.11000  -0.23900  -0.12200
C39       0.19200   0.11900   0.47000   0.10700  -0.24400  -0.14400
O41       0.06800   0.08200   0.15800   0.03900   0.02300   0.04500
C42       0.08300   0.18800   0.45400   0.07800   0.11700   0.23900
C44       0.09700   0.19200   0.47000   0.08500   0.10000   0.24400
O46       0.07200   0.06800   0.15800   0.02900  -0.02200   0.02300
C47       0.11500   0.08300   0.45400   0.00500  -0.12200   0.11700
C49       0.11900   0.09700   0.47000   0.01200  -0.14400   0.10000
O51       0.08200   0.07200   0.15800   0.04300   0.04500   0.02200
C52       0.18800   0.11500   0.45400   0.11000   0.23900   0.12200
C54       0.19200   0.11900   0.47000   0.10700   0.24400   0.14400
O56       0.06800   0.08200   0.15800   0.03900  -0.02300  -0.04500
C57       0.08300   0.18800   0.45400   0.07800  -0.11700  -0.23900
C59       0.09700   0.19200   0.47000   0.08500  -0.10000  -0.24400
Fe61      0.04780   0.04220   0.09320   0.02390   0.00000   0.00000
O62       0.04900   0.06450   0.15000   0.02450   0.00000   0.00000
Fe63      0.04220   0.04220   0.09320   0.01830   0.00000   0.00000
O64       0.06450   0.06450   0.15000   0.04000   0.00000   0.00000
Fe65      0.04220   0.04780   0.09320   0.02390   0.00000   0.00000
O66       0.06450   0.04900   0.15000   0.02450   0.00000   0.00000
O67       0.04800   0.04800   0.05600   0.02400   0.00000   0.00000
C68       0.04700   0.04700   0.08200   0.02600   0.00060  -0.00060
C69       0.05200   0.05200   0.10100   0.03100   0.00300  -0.00300
C70       0.06200   0.06200   0.08800   0.04000   0.00010  -0.00010
C71       0.06600   0.06600   0.09900   0.04600   0.00300  -0.00300
C72       0.07000   0.07000   0.07600   0.04500  -0.00200   0.00200
C73       0.05700   0.05700   0.07600   0.03000   0.00200  -0.00200
C75       0.04700   0.04200   0.08200   0.02100   0.00060   0.00120
C76       0.05200   0.04200   0.10100   0.02100   0.00300   0.00600
C77       0.06200   0.04400   0.08800   0.02200   0.00010   0.00020
C78       0.06600   0.04000   0.09900   0.02000   0.00300   0.00600
C79       0.07000   0.05000   0.07600   0.02500  -0.00200  -0.00400
C80       0.05700   0.05400   0.07600   0.02700   0.00200   0.00400
C82       0.04200   0.04700   0.08200   0.02100  -0.00120  -0.00060
C83       0.04200   0.05200   0.10100   0.02100  -0.00600  -0.00300
C84       0.04400   0.06200   0.08800   0.02200  -0.00020  -0.00010
C85       0.04000   0.06600   0.09900   0.02000  -0.00600  -0.00300
C86       0.05000   0.07000   0.07600   0.02500   0.00400   0.00200
C87       0.05400   0.05700   0.07600   0.02700  -0.00400  -0.00200
C89       0.04700   0.04700   0.08200   0.02600  -0.00060   0.00060
C90       0.05200   0.05200   0.10100   0.03100  -0.00300   0.00300
C91       0.06200   0.06200   0.08800   0.04000  -0.00010   0.00010
C92       0.06600   0.06600   0.09900   0.04600  -0.00300   0.00300
C93       0.07000   0.07000   0.07600   0.04500   0.00200  -0.00200
C94       0.05700   0.05700   0.07600   0.03000  -0.00200   0.00200
C96       0.04700   0.04200   0.08200   0.02100  -0.00060  -0.00120
C97       0.05200   0.04200   0.10100   0.02100  -0.00300  -0.00600
C98       0.06200   0.04400   0.08800   0.02200  -0.00010  -0.00020
C99       0.06600   0.04000   0.09900   0.02000  -0.00300  -0.00600
C100      0.07000   0.05000   0.07600   0.02500   0.00200   0.00400
C101      0.05700   0.05400   0.07600   0.02700  -0.00200  -0.00400
C103      0.04200   0.04700   0.08200   0.02100   0.00120   0.00060
C104      0.04200   0.05200   0.10100   0.02100   0.00600   0.00300
C105      0.04400   0.06200   0.08800   0.02200   0.00020   0.00010
C106      0.04000   0.06600   0.09900   0.02000   0.00600   0.00300
C107      0.05000   0.07000   0.07600   0.02500  -0.00400  -0.00200
C108      0.05400   0.05700   0.07600   0.02700   0.00400   0.00200
C110      0.03867   0.03867   0.07800   0.01933   0.00000   0.00000
C112      0.03867   0.03867   0.07800   0.01933   0.00000   0.00000
O114      0.06800   0.07200   0.15800   0.02900   0.02300  -0.02200
C115      0.08300   0.11500   0.45400   0.00500   0.11700  -0.12200
C117      0.09700   0.11900   0.47000   0.01200   0.10000  -0.14400
O119      0.07200   0.08200   0.15800   0.04300   0.02200   0.04500
C120      0.11500   0.18800   0.45400   0.11000   0.12200   0.23900
C122      0.11900   0.19200   0.47000   0.10700   0.14400   0.24400
O124      0.08200   0.06800   0.15800   0.03900  -0.04500  -0.02300
C125      0.18800   0.08300   0.45400   0.07800  -0.23900  -0.11700
C127      0.19200   0.09700   0.47000   0.08500  -0.24400  -0.10000
O129      0.06800   0.07200   0.15800   0.02900  -0.02300   0.02200
C130      0.08300   0.11500   0.45400   0.00500  -0.11700   0.12200
C132      0.09700   0.11900   0.47000   0.01200  -0.10000   0.14400
O134      0.07200   0.08200   0.15800   0.04300  -0.02200  -0.04500
C135      0.11500   0.18800   0.45400   0.11000  -0.12200  -0.23900
C137      0.11900   0.19200   0.47000   0.10700  -0.14400  -0.24400
O139      0.08200   0.06800   0.15800   0.03900   0.04500   0.02300
C140      0.18800   0.08300   0.45400   0.07800   0.23900   0.11700
C142      0.19200   0.09700   0.47000   0.08500   0.24400   0.10000
O144      0.07200   0.06800   0.15800   0.02900   0.02200  -0.02300
C145      0.11500   0.08300   0.45400   0.00500   0.12200  -0.11700
C147      0.11900   0.09700   0.47000   0.01200   0.14400  -0.10000
O149      0.08200   0.07200   0.15800   0.04300  -0.04500  -0.02200
C150      0.18800   0.11500   0.45400   0.11000  -0.23900  -0.12200
C152      0.19200   0.11900   0.47000   0.10700  -0.24400  -0.14400
O154      0.06800   0.08200   0.15800   0.03900   0.02300   0.04500
C155      0.08300   0.18800   0.45400   0.07800   0.11700   0.23900
C157      0.09700   0.19200   0.47000   0.08500   0.10000   0.24400
O159      0.07200   0.06800   0.15800   0.02900  -0.02200   0.02300
C160      0.11500   0.08300   0.45400   0.00500  -0.12200   0.11700
C162      0.11900   0.09700   0.47000   0.01200  -0.14400   0.10000
O164      0.08200   0.07200   0.15800   0.04300   0.04500   0.02200
C165      0.18800   0.11500   0.45400   0.11000   0.23900   0.12200
C167      0.19200   0.11900   0.47000   0.10700   0.24400   0.14400
O169      0.06800   0.08200   0.15800   0.03900  -0.02300  -0.04500
C170      0.08300   0.18800   0.45400   0.07800  -0.11700  -0.23900
C172      0.09700   0.19200   0.47000   0.08500  -0.10000  -0.24400
Fe174     0.04780   0.04220   0.09320   0.02390   0.00000   0.00000
O175      0.04900   0.06450   0.15000   0.02450   0.00000   0.00000
Fe176     0.04220   0.04220   0.09320   0.01830   0.00000   0.00000
O177      0.06450   0.06450   0.15000   0.04000   0.00000   0.00000
Fe178     0.04220   0.04780   0.09320   0.02390   0.00000   0.00000
O179      0.06450   0.04900   0.15000   0.02450   0.00000   0.00000
O180      0.04800   0.04800   0.05600   0.02400   0.00000   0.00000
C181      0.04700   0.04700   0.08200   0.02600   0.00060  -0.00060
C182      0.05200   0.05200   0.10100   0.03100   0.00300  -0.00300
C183      0.06200   0.06200   0.08800   0.04000   0.00010  -0.00010
C184      0.06600   0.06600   0.09900   0.04600   0.00300  -0.00300
C185      0.07000   0.07000   0.07600   0.04500  -0.00200   0.00200
C186      0.05700   0.05700   0.07600   0.03000   0.00200  -0.00200
C188      0.04700   0.04200   0.08200   0.02100   0.00060   0.00120
C189      0.05200   0.04200   0.10100   0.02100   0.00300   0.00600
C190      0.06200   0.04400   0.08800   0.02200   0.00010   0.00020
C191      0.06600   0.04000   0.09900   0.02000   0.00300   0.00600
C192      0.07000   0.05000   0.07600   0.02500  -0.00200  -0.00400
C193      0.05700   0.05400   0.07600   0.02700   0.00200   0.00400
C195      0.04200   0.04700   0.08200   0.02100  -0.00120  -0.00060
C196      0.04200   0.05200   0.10100   0.02100  -0.00600  -0.00300
C197      0.04400   0.06200   0.08800   0.02200  -0.00020  -0.00010
C198      0.04000   0.06600   0.09900   0.02000  -0.00600  -0.00300
C199      0.05000   0.07000   0.07600   0.02500   0.00400   0.00200
C200      0.05400   0.05700   0.07600   0.02700  -0.00400  -0.00200
C202      0.04700   0.04700   0.08200   0.02600  -0.00060   0.00060
C203      0.05200   0.05200   0.10100   0.03100  -0.00300   0.00300
C204      0.06200   0.06200   0.08800   0.04000  -0.00010   0.00010
C205      0.06600   0.06600   0.09900   0.04600  -0.00300   0.00300
C206      0.07000   0.07000   0.07600   0.04500   0.00200  -0.00200
C207      0.05700   0.05700   0.07600   0.03000  -0.00200   0.00200
C209      0.04700   0.04200   0.08200   0.02100  -0.00060  -0.00120
C210      0.05200   0.04200   0.10100   0.02100  -0.00300  -0.00600
C211      0.06200   0.04400   0.08800   0.02200  -0.00010  -0.00020
C212      0.06600   0.04000   0.09900   0.02000  -0.00300  -0.00600
C213      0.07000   0.05000   0.07600   0.02500   0.00200   0.00400
C214      0.05700   0.05400   0.07600   0.02700  -0.00200  -0.00400
C216      0.04200   0.04700   0.08200   0.02100   0.00120   0.00060
C217      0.04200   0.05200   0.10100   0.02100   0.00600   0.00300
C218      0.04400   0.06200   0.08800   0.02200   0.00020   0.00010
C219      0.04000   0.06600   0.09900   0.02000   0.00600   0.00300
C220      0.05000   0.07000   0.07600   0.02500  -0.00400  -0.00200
C221      0.05400   0.05700   0.07600   0.02700   0.00400   0.00200
C223      0.03867   0.03867   0.07800   0.01933   0.00000   0.00000
C225      0.03867   0.03867   0.07800   0.01933   0.00000   0.00000
O227      0.06800   0.07200   0.15800   0.02900   0.02300  -0.02200
C228      0.08300   0.11500   0.45400   0.00500   0.11700  -0.12200
C230      0.09700   0.11900   0.47000   0.01200   0.10000  -0.14400
O232      0.07200   0.08200   0.15800   0.04300   0.02200   0.04500
C233      0.11500   0.18800   0.45400   0.11000   0.12200   0.23900
C235      0.11900   0.19200   0.47000   0.10700   0.14400   0.24400
O237      0.08200   0.06800   0.15800   0.03900  -0.04500  -0.02300
C238      0.18800   0.08300   0.45400   0.07800  -0.23900  -0.11700
C240      0.19200   0.09700   0.47000   0.08500  -0.24400  -0.10000
O242      0.06800   0.07200   0.15800   0.02900  -0.02300   0.02200
C243      0.08300   0.11500   0.45400   0.00500  -0.11700   0.12200
C245      0.09700   0.11900   0.47000   0.01200  -0.10000   0.14400
O247      0.07200   0.08200   0.15800   0.04300  -0.02200  -0.04500
C248      0.11500   0.18800   0.45400   0.11000  -0.12200  -0.23900
C250      0.11900   0.19200   0.47000   0.10700  -0.14400  -0.24400
O252      0.08200   0.06800   0.15800   0.03900   0.04500   0.02300
C253      0.18800   0.08300   0.45400   0.07800   0.23900   0.11700
C255      0.19200   0.09700   0.47000   0.08500   0.24400   0.10000
O257      0.07200   0.06800   0.15800   0.02900   0.02200  -0.02300
C258      0.11500   0.08300   0.45400   0.00500   0.12200  -0.11700
C260      0.11900   0.09700   0.47000   0.01200   0.14400  -0.10000
O262      0.08200   0.07200   0.15800   0.04300  -0.04500  -0.02200
C263      0.18800   0.11500   0.45400   0.11000  -0.23900  -0.12200
C265      0.19200   0.11900   0.47000   0.10700  -0.24400  -0.14400
O267      0.06800   0.08200   0.15800   0.03900   0.02300   0.04500
C268      0.08300   0.18800   0.45400   0.07800   0.11700   0.23900
C270      0.09700   0.19200   0.47000   0.08500   0.10000   0.24400
O272      0.07200   0.06800   0.15800   0.02900  -0.02200   0.02300
C273      0.11500   0.08300   0.45400   0.00500  -0.12200   0.11700
C275      0.11900   0.09700   0.47000   0.01200  -0.14400   0.10000
O277      0.08200   0.07200   0.15800   0.04300   0.04500   0.02200
C278      0.18800   0.11500   0.45400   0.11000   0.23900   0.12200
C280      0.19200   0.11900   0.47000   0.10700   0.24400   0.14400
O282      0.06800   0.08200   0.15800   0.03900  -0.02300  -0.04500
C283      0.08300   0.18800   0.45400   0.07800  -0.11700  -0.23900
C285      0.09700   0.19200   0.47000   0.08500  -0.10000  -0.24400
Fe287     0.04780   0.04220   0.09320   0.02390   0.00000   0.00000
O288      0.04900   0.06450   0.15000   0.02450   0.00000   0.00000
Fe289     0.04220   0.04220   0.09320   0.01830   0.00000   0.00000
O290      0.06450   0.06450   0.15000   0.04000   0.00000   0.00000
Fe291     0.04220   0.04780   0.09320   0.02390   0.00000   0.00000
O292      0.06450   0.04900   0.15000   0.02450   0.00000   0.00000
O293      0.04800   0.04800   0.05600   0.02400   0.00000   0.00000
C294      0.04700   0.04700   0.08200   0.02600   0.00060  -0.00060
C295      0.05200   0.05200   0.10100   0.03100   0.00300  -0.00300
C296      0.06200   0.06200   0.08800   0.04000   0.00010  -0.00010
C297      0.06600   0.06600   0.09900   0.04600   0.00300  -0.00300
C298      0.07000   0.07000   0.07600   0.04500  -0.00200   0.00200
C299      0.05700   0.05700   0.07600   0.03000   0.00200  -0.00200
C301      0.04700   0.04200   0.08200   0.02100   0.00060   0.00120
C302      0.05200   0.04200   0.10100   0.02100   0.00300   0.00600
C303      0.06200   0.04400   0.08800   0.02200   0.00010   0.00020
C304      0.06600   0.04000   0.09900   0.02000   0.00300   0.00600
C305      0.07000   0.05000   0.07600   0.02500  -0.00200  -0.00400
C306      0.05700   0.05400   0.07600   0.02700   0.00200   0.00400
C308      0.04200   0.04700   0.08200   0.02100  -0.00120  -0.00060
C309      0.04200   0.05200   0.10100   0.02100  -0.00600  -0.00300
C310      0.04400   0.06200   0.08800   0.02200  -0.00020  -0.00010
C311      0.04000   0.06600   0.09900   0.02000  -0.00600  -0.00300
C312      0.05000   0.07000   0.07600   0.02500   0.00400   0.00200
C313      0.05400   0.05700   0.07600   0.02700  -0.00400  -0.00200
C315      0.04700   0.04700   0.08200   0.02600  -0.00060   0.00060
C316      0.05200   0.05200   0.10100   0.03100  -0.00300   0.00300
C317      0.06200   0.06200   0.08800   0.04000  -0.00010   0.00010
C318      0.06600   0.06600   0.09900   0.04600  -0.00300   0.00300
C319      0.07000   0.07000   0.07600   0.04500   0.00200  -0.00200
C320      0.05700   0.05700   0.07600   0.03000  -0.00200   0.00200
C322      0.04700   0.04200   0.08200   0.02100  -0.00060  -0.00120
C323      0.05200   0.04200   0.10100   0.02100  -0.00300  -0.00600
C324      0.06200   0.04400   0.08800   0.02200  -0.00010  -0.00020
C325      0.06600   0.04000   0.09900   0.02000  -0.00300  -0.00600
C326      0.07000   0.05000   0.07600   0.02500   0.00200   0.00400
C327      0.05700   0.05400   0.07600   0.02700  -0.00200  -0.00400
C329      0.04200   0.04700   0.08200   0.02100   0.00120   0.00060
C330      0.04200   0.05200   0.10100   0.02100   0.00600   0.00300
C331      0.04400   0.06200   0.08800   0.02200   0.00020   0.00010
C332      0.04000   0.06600   0.09900   0.02000   0.00600   0.00300
C333      0.05000   0.07000   0.07600   0.02500  -0.00400  -0.00200
C334      0.05400   0.05700   0.07600   0.02700   0.00400   0.00200
C336      0.03867   0.03867   0.07800   0.01933   0.00000   0.00000
C338      0.03867   0.03867   0.07800   0.01933   0.00000   0.00000
O340      0.06800   0.07200   0.15800   0.02900   0.02300  -0.02200
C341      0.08300   0.11500   0.45400   0.00500   0.11700  -0.12200
C343      0.09700   0.11900   0.47000   0.01200   0.10000  -0.14400
O345      0.07200   0.08200   0.15800   0.04300   0.02200   0.04500
C346      0.11500   0.18800   0.45400   0.11000   0.12200   0.23900
C348      0.11900   0.19200   0.47000   0.10700   0.14400   0.24400
O350      0.08200   0.06800   0.15800   0.03900  -0.04500  -0.02300
C351      0.18800   0.08300   0.45400   0.07800  -0.23900  -0.11700
C353      0.19200   0.09700   0.47000   0.08500  -0.24400  -0.10000
O355      0.06800   0.07200   0.15800   0.02900  -0.02300   0.02200
C356      0.08300   0.11500   0.45400   0.00500  -0.11700   0.12200
C358      0.09700   0.11900   0.47000   0.01200  -0.10000   0.14400
O360      0.07200   0.08200   0.15800   0.04300  -0.02200  -0.04500
C361      0.11500   0.18800   0.45400   0.11000  -0.12200  -0.23900
C363      0.11900   0.19200   0.47000   0.10700  -0.14400  -0.24400
O365      0.08200   0.06800   0.15800   0.03900   0.04500   0.02300
C366      0.18800   0.08300   0.45400   0.07800   0.23900   0.11700
C368      0.19200   0.09700   0.47000   0.08500   0.24400   0.10000
O370      0.07200   0.06800   0.15800   0.02900   0.02200  -0.02300
C371      0.11500   0.08300   0.45400   0.00500   0.12200  -0.11700
C373      0.11900   0.09700   0.47000   0.01200   0.14400  -0.10000
O375      0.08200   0.07200   0.15800   0.04300  -0.04500  -0.02200
C376      0.18800   0.11500   0.45400   0.11000  -0.23900  -0.12200
C378      0.19200   0.11900   0.47000   0.10700  -0.24400  -0.14400
O380      0.06800   0.08200   0.15800   0.03900   0.02300   0.04500
C381      0.08300   0.18800   0.45400   0.07800   0.11700   0.23900
C383      0.09700   0.19200   0.47000   0.08500   0.10000   0.24400
O385      0.07200   0.06800   0.15800   0.02900  -0.02200   0.02300
C386      0.11500   0.08300   0.45400   0.00500  -0.12200   0.11700
C388      0.11900   0.09700   0.47000   0.01200  -0.14400   0.10000
O390      0.08200   0.07200   0.15800   0.04300   0.04500   0.02200
C391      0.18800   0.11500   0.45400   0.11000   0.23900   0.12200
C393      0.19200   0.11900   0.47000   0.10700   0.24400   0.14400
O395      0.06800   0.08200   0.15800   0.03900  -0.02300  -0.04500
C396      0.08300   0.18800   0.45400   0.07800  -0.11700  -0.23900
C398      0.09700   0.19200   0.47000   0.08500  -0.10000  -0.24400
Fe400     0.04780   0.04220   0.09320   0.02390   0.00000   0.00000
O401      0.04900   0.06450   0.15000   0.02450   0.00000   0.00000
Fe402     0.04220   0.04220   0.09320   0.01830   0.00000   0.00000
O403      0.06450   0.06450   0.15000   0.04000   0.00000   0.00000
Fe404     0.04220   0.04780   0.09320   0.02390   0.00000   0.00000
O405      0.06450   0.04900   0.15000   0.02450   0.00000   0.00000
O406      0.04800   0.04800   0.05600   0.02400   0.00000   0.00000
C407      0.04700   0.04700   0.08200   0.02600   0.00060  -0.00060
C408      0.05200   0.05200   0.10100   0.03100   0.00300  -0.00300
C409      0.06200   0.06200   0.08800   0.04000   0.00010  -0.00010
C410      0.06600   0.06600   0.09900   0.04600   0.00300  -0.00300
C411      0.07000   0.07000   0.07600   0.04500  -0.00200   0.00200
C412      0.05700   0.05700   0.07600   0.03000   0.00200  -0.00200
C414      0.04700   0.04200   0.08200   0.02100   0.00060   0.00120
C415      0.05200   0.04200   0.10100   0.02100   0.00300   0.00600
C416      0.06200   0.04400   0.08800   0.02200   0.00010   0.00020
C417      0.06600   0.04000   0.09900   0.02000   0.00300   0.00600
C418      0.07000   0.05000   0.07600   0.02500  -0.00200  -0.00400
C419      0.05700   0.05400   0.07600   0.02700   0.00200   0.00400
C421      0.04200   0.04700   0.08200   0.02100  -0.00120  -0.00060
C422      0.04200   0.05200   0.10100   0.02100  -0.00600  -0.00300
C423      0.04400   0.06200   0.08800   0.02200  -0.00020  -0.00010
C424      0.04000   0.06600   0.09900   0.02000  -0.00600  -0.00300
C425      0.05000   0.07000   0.07600   0.02500   0.00400   0.00200
C426      0.05400   0.05700   0.07600   0.02700  -0.00400  -0.00200
C428      0.04700   0.04700   0.08200   0.02600  -0.00060   0.00060
C429      0.05200   0.05200   0.10100   0.03100  -0.00300   0.00300
C430      0.06200   0.06200   0.08800   0.04000  -0.00010   0.00010
C431      0.06600   0.06600   0.09900   0.04600  -0.00300   0.00300
C432      0.07000   0.07000   0.07600   0.04500   0.00200  -0.00200
C433      0.05700   0.05700   0.07600   0.03000  -0.00200   0.00200
C435      0.04700   0.04200   0.08200   0.02100  -0.00060  -0.00120
C436      0.05200   0.04200   0.10100   0.02100  -0.00300  -0.00600
C437      0.06200   0.04400   0.08800   0.02200  -0.00010  -0.00020
C438      0.06600   0.04000   0.09900   0.02000  -0.00300  -0.00600
C439      0.07000   0.05000   0.07600   0.02500   0.00200   0.00400
C440      0.05700   0.05400   0.07600   0.02700  -0.00200  -0.00400
C442      0.04200   0.04700   0.08200   0.02100   0.00120   0.00060
C443      0.04200   0.05200   0.10100   0.02100   0.00600   0.00300
C444      0.04400   0.06200   0.08800   0.02200   0.00020   0.00010
C445      0.04000   0.06600   0.09900   0.02000   0.00600   0.00300
C446      0.05000   0.07000   0.07600   0.02500  -0.00400  -0.00200
C447      0.05400   0.05700   0.07600   0.02700   0.00400   0.00200
C449      0.03867   0.03867   0.07800   0.01933   0.00000   0.00000
C451      0.03867   0.03867   0.07800   0.01933   0.00000   0.00000
O453      0.06800   0.07200   0.15800   0.02900   0.02300  -0.02200
C454      0.08300   0.11500   0.45400   0.00500   0.11700  -0.12200
C456      0.09700   0.11900   0.47000   0.01200   0.10000  -0.14400
O458      0.07200   0.08200   0.15800   0.04300   0.02200   0.04500
C459      0.11500   0.18800   0.45400   0.11000   0.12200   0.23900
C461      0.11900   0.19200   0.47000   0.10700   0.14400   0.24400
O463      0.08200   0.06800   0.15800   0.03900  -0.04500  -0.02300
C464      0.18800   0.08300   0.45400   0.07800  -0.23900  -0.11700
C466      0.19200   0.09700   0.47000   0.08500  -0.24400  -0.10000
O468      0.06800   0.07200   0.15800   0.02900  -0.02300   0.02200
C469      0.08300   0.11500   0.45400   0.00500  -0.11700   0.12200
C471      0.09700   0.11900   0.47000   0.01200  -0.10000   0.14400
O473      0.07200   0.08200   0.15800   0.04300  -0.02200  -0.04500
C474      0.11500   0.18800   0.45400   0.11000  -0.12200  -0.23900
C476      0.11900   0.19200   0.47000   0.10700  -0.14400  -0.24400
O478      0.08200   0.06800   0.15800   0.03900   0.04500   0.02300
C479      0.18800   0.08300   0.45400   0.07800   0.23900   0.11700
C481      0.19200   0.09700   0.47000   0.08500   0.24400   0.10000
O483      0.07200   0.06800   0.15800   0.02900   0.02200  -0.02300
C484      0.11500   0.08300   0.45400   0.00500   0.12200  -0.11700
C486      0.11900   0.09700   0.47000   0.01200   0.14400  -0.10000
O488      0.08200   0.07200   0.15800   0.04300  -0.04500  -0.02200
C489      0.18800   0.11500   0.45400   0.11000  -0.23900  -0.12200
C491      0.19200   0.11900   0.47000   0.10700  -0.24400  -0.14400
O493      0.06800   0.08200   0.15800   0.03900   0.02300   0.04500
C494      0.08300   0.18800   0.45400   0.07800   0.11700   0.23900
C496      0.09700   0.19200   0.47000   0.08500   0.10000   0.24400
O498      0.07200   0.06800   0.15800   0.02900  -0.02200   0.02300
C499      0.11500   0.08300   0.45400   0.00500  -0.12200   0.11700
C501      0.11900   0.09700   0.47000   0.01200  -0.14400   0.10000
O503      0.08200   0.07200   0.15800   0.04300   0.04500   0.02200
C504      0.18800   0.11500   0.45400   0.11000   0.23900   0.12200
C506      0.19200   0.11900   0.47000   0.10700   0.24400   0.14400
O508      0.06800   0.08200   0.15800   0.03900  -0.02300  -0.04500
C509      0.08300   0.18800   0.45400   0.07800  -0.11700  -0.23900
C511      0.09700   0.19200   0.47000   0.08500  -0.10000  -0.24400
Fe513     0.04780   0.04220   0.09320   0.02390   0.00000   0.00000
O514      0.04900   0.06450   0.15000   0.02450   0.00000   0.00000
Fe515     0.04220   0.04220   0.09320   0.01830   0.00000   0.00000
O516      0.06450   0.06450   0.15000   0.04000   0.00000   0.00000
Fe517     0.04220   0.04780   0.09320   0.02390   0.00000   0.00000
O518      0.06450   0.04900   0.15000   0.02450   0.00000   0.00000
O519      0.04800   0.04800   0.05600   0.02400   0.00000   0.00000
C520      0.04700   0.04700   0.08200   0.02600   0.00060  -0.00060
C521      0.05200   0.05200   0.10100   0.03100   0.00300  -0.00300
C522      0.06200   0.06200   0.08800   0.04000   0.00010  -0.00010
C523      0.06600   0.06600   0.09900   0.04600   0.00300  -0.00300
C524      0.07000   0.07000   0.07600   0.04500  -0.00200   0.00200
C525      0.05700   0.05700   0.07600   0.03000   0.00200  -0.00200
C527      0.04700   0.04200   0.08200   0.02100   0.00060   0.00120
C528      0.05200   0.04200   0.10100   0.02100   0.00300   0.00600
C529      0.06200   0.04400   0.08800   0.02200   0.00010   0.00020
C530      0.06600   0.04000   0.09900   0.02000   0.00300   0.00600
C531      0.07000   0.05000   0.07600   0.02500  -0.00200  -0.00400
C532      0.05700   0.05400   0.07600   0.02700   0.00200   0.00400
C534      0.04200   0.04700   0.08200   0.02100  -0.00120  -0.00060
C535      0.04200   0.05200   0.10100   0.02100  -0.00600  -0.00300
C536      0.04400   0.06200   0.08800   0.02200  -0.00020  -0.00010
C537      0.04000   0.06600   0.09900   0.02000  -0.00600  -0.00300
C538      0.05000   0.07000   0.07600   0.02500   0.00400   0.00200
C539      0.05400   0.05700   0.07600   0.02700  -0.00400  -0.00200
C541      0.04700   0.04700   0.08200   0.02600  -0.00060   0.00060
C542      0.05200   0.05200   0.10100   0.03100  -0.00300   0.00300
C543      0.06200   0.06200   0.08800   0.04000  -0.00010   0.00010
C544      0.06600   0.06600   0.09900   0.04600  -0.00300   0.00300
C545      0.07000   0.07000   0.07600   0.04500   0.00200  -0.00200
C546      0.05700   0.05700   0.07600   0.03000  -0.00200   0.00200
C548      0.04700   0.04200   0.08200   0.02100  -0.00060  -0.00120
C549      0.05200   0.04200   0.10100   0.02100  -0.00300  -0.00600
C550      0.06200   0.04400   0.08800   0.02200  -0.00010  -0.00020
C551      0.06600   0.04000   0.09900   0.02000  -0.00300  -0.00600
C552      0.07000   0.05000   0.07600   0.02500   0.00200   0.00400
C553      0.05700   0.05400   0.07600   0.02700  -0.00200  -0.00400
C555      0.04200   0.04700   0.08200   0.02100   0.00120   0.00060
C556      0.04200   0.05200   0.10100   0.02100   0.00600   0.00300
C557      0.04400   0.06200   0.08800   0.02200   0.00020   0.00010
C558      0.04000   0.06600   0.09900   0.02000   0.00600   0.00300
C559      0.05000   0.07000   0.07600   0.02500  -0.00400  -0.00200
C560      0.05400   0.05700   0.07600   0.02700   0.00400   0.00200
C562      0.03867   0.03867   0.07800   0.01933   0.00000   0.00000
C564      0.03867   0.03867   0.07800   0.01933   0.00000   0.00000
O566      0.06800   0.07200   0.15800   0.02900   0.02300  -0.02200
C567      0.08300   0.11500   0.45400   0.00500   0.11700  -0.12200
C569      0.09700   0.11900   0.47000   0.01200   0.10000  -0.14400
O571      0.07200   0.08200   0.15800   0.04300   0.02200   0.04500
C572      0.11500   0.18800   0.45400   0.11000   0.12200   0.23900
C574      0.11900   0.19200   0.47000   0.10700   0.14400   0.24400
O576      0.08200   0.06800   0.15800   0.03900  -0.04500  -0.02300
C577      0.18800   0.08300   0.45400   0.07800  -0.23900  -0.11700
C579      0.19200   0.09700   0.47000   0.08500  -0.24400  -0.10000
O581      0.06800   0.07200   0.15800   0.02900  -0.02300   0.02200
C582      0.08300   0.11500   0.45400   0.00500  -0.11700   0.12200
C584      0.09700   0.11900   0.47000   0.01200  -0.10000   0.14400
O586      0.07200   0.08200   0.15800   0.04300  -0.02200  -0.04500
C587      0.11500   0.18800   0.45400   0.11000  -0.12200  -0.23900
C589      0.11900   0.19200   0.47000   0.10700  -0.14400  -0.24400
O591      0.08200   0.06800   0.15800   0.03900   0.04500   0.02300
C592      0.18800   0.08300   0.45400   0.07800   0.23900   0.11700
C594      0.19200   0.09700   0.47000   0.08500   0.24400   0.10000
O596      0.07200   0.06800   0.15800   0.02900   0.02200  -0.02300
C597      0.11500   0.08300   0.45400   0.00500   0.12200  -0.11700
C599      0.11900   0.09700   0.47000   0.01200   0.14400  -0.10000
O601      0.08200   0.07200   0.15800   0.04300  -0.04500  -0.02200
C602      0.18800   0.11500   0.45400   0.11000  -0.23900  -0.12200
C604      0.19200   0.11900   0.47000   0.10700  -0.24400  -0.14400
O606      0.06800   0.08200   0.15800   0.03900   0.02300   0.04500
C607      0.08300   0.18800   0.45400   0.07800   0.11700   0.23900
C609      0.09700   0.19200   0.47000   0.08500   0.10000   0.24400
O611      0.07200   0.06800   0.15800   0.02900  -0.02200   0.02300
C612      0.11500   0.08300   0.45400   0.00500  -0.12200   0.11700
C614      0.11900   0.09700   0.47000   0.01200  -0.14400   0.10000
O616      0.08200   0.07200   0.15800   0.04300   0.04500   0.02200
C617      0.18800   0.11500   0.45400   0.11000   0.23900   0.12200
C619      0.19200   0.11900   0.47000   0.10700   0.24400   0.14400
O621      0.06800   0.08200   0.15800   0.03900  -0.02300  -0.04500
C622      0.08300   0.18800   0.45400   0.07800  -0.11700  -0.23900
C624      0.09700   0.19200   0.47000   0.08500  -0.10000  -0.24400
Fe626     0.04780   0.04220   0.09320   0.02390   0.00000   0.00000
O627      0.04900   0.06450   0.15000   0.02450   0.00000   0.00000
Fe628     0.04220   0.04220   0.09320   0.01830   0.00000   0.00000
O629      0.06450   0.06450   0.15000   0.04000   0.00000   0.00000
Fe630     0.04220   0.04780   0.09320   0.02390   0.00000   0.00000
O631      0.06450   0.04900   0.15000   0.02450   0.00000   0.00000
O632      0.04800   0.04800   0.05600   0.02400   0.00000   0.00000
C633      0.04700   0.04700   0.08200   0.02600   0.00060  -0.00060
C634      0.05200   0.05200   0.10100   0.03100   0.00300  -0.00300
C635      0.06200   0.06200   0.08800   0.04000   0.00010  -0.00010
C636      0.06600   0.06600   0.09900   0.04600   0.00300  -0.00300
C637      0.07000   0.07000   0.07600   0.04500  -0.00200   0.00200
C638      0.05700   0.05700   0.07600   0.03000   0.00200  -0.00200
C640      0.04700   0.04200   0.08200   0.02100   0.00060   0.00120
C641      0.05200   0.04200   0.10100   0.02100   0.00300   0.00600
C642      0.06200   0.04400   0.08800   0.02200   0.00010   0.00020
C643      0.06600   0.04000   0.09900   0.02000   0.00300   0.00600
C644      0.07000   0.05000   0.07600   0.02500  -0.00200  -0.00400
C645      0.05700   0.05400   0.07600   0.02700   0.00200   0.00400
C647      0.04200   0.04700   0.08200   0.02100  -0.00120  -0.00060
C648      0.04200   0.05200   0.10100   0.02100  -0.00600  -0.00300
C649      0.04400   0.06200   0.08800   0.02200  -0.00020  -0.00010
C650      0.04000   0.06600   0.09900   0.02000  -0.00600  -0.00300
C651      0.05000   0.07000   0.07600   0.02500   0.00400   0.00200
C652      0.05400   0.05700   0.07600   0.02700  -0.00400  -0.00200
C654      0.04700   0.04700   0.08200   0.02600  -0.00060   0.00060
C655      0.05200   0.05200   0.10100   0.03100  -0.00300   0.00300
C656      0.06200   0.06200   0.08800   0.04000  -0.00010   0.00010
C657      0.06600   0.06600   0.09900   0.04600  -0.00300   0.00300
C658      0.07000   0.07000   0.07600   0.04500   0.00200  -0.00200
C659      0.05700   0.05700   0.07600   0.03000  -0.00200   0.00200
C661      0.04700   0.04200   0.08200   0.02100  -0.00060  -0.00120
C662      0.05200   0.04200   0.10100   0.02100  -0.00300  -0.00600
C663      0.06200   0.04400   0.08800   0.02200  -0.00010  -0.00020
C664      0.06600   0.04000   0.09900   0.02000  -0.00300  -0.00600
C665      0.07000   0.05000   0.07600   0.02500   0.00200   0.00400
C666      0.05700   0.05400   0.07600   0.02700  -0.00200  -0.00400
C668      0.04200   0.04700   0.08200   0.02100   0.00120   0.00060
C669      0.04200   0.05200   0.10100   0.02100   0.00600   0.00300
C670      0.04400   0.06200   0.08800   0.02200   0.00020   0.00010
C671      0.04000   0.06600   0.09900   0.02000   0.00600   0.00300
C672      0.05000   0.07000   0.07600   0.02500  -0.00400  -0.00200
C673      0.05400   0.05700   0.07600   0.02700   0.00400   0.00200
C675      0.03867   0.03867   0.07800   0.01933   0.00000   0.00000
C677      0.03867   0.03867   0.07800   0.01933   0.00000   0.00000
O679      0.06800   0.07200   0.15800   0.02900   0.02300  -0.02200
C680      0.08300   0.11500   0.45400   0.00500   0.11700  -0.12200
C682      0.09700   0.11900   0.47000   0.01200   0.10000  -0.14400
O684      0.07200   0.08200   0.15800   0.04300   0.02200   0.04500
C685      0.11500   0.18800   0.45400   0.11000   0.12200   0.23900
C687      0.11900   0.19200   0.47000   0.10700   0.14400   0.24400
O689      0.08200   0.06800   0.15800   0.03900  -0.04500  -0.02300
C690      0.18800   0.08300   0.45400   0.07800  -0.23900  -0.11700
C692      0.19200   0.09700   0.47000   0.08500  -0.24400  -0.10000
O694      0.06800   0.07200   0.15800   0.02900  -0.02300   0.02200
C695      0.08300   0.11500   0.45400   0.00500  -0.11700   0.12200
C697      0.09700   0.11900   0.47000   0.01200  -0.10000   0.14400
O699      0.07200   0.08200   0.15800   0.04300  -0.02200  -0.04500
C700      0.11500   0.18800   0.45400   0.11000  -0.12200  -0.23900
C702      0.11900   0.19200   0.47000   0.10700  -0.14400  -0.24400
O704      0.08200   0.06800   0.15800   0.03900   0.04500   0.02300
C705      0.18800   0.08300   0.45400   0.07800   0.23900   0.11700
C707      0.19200   0.09700   0.47000   0.08500   0.24400   0.10000
O709      0.07200   0.06800   0.15800   0.02900   0.02200  -0.02300
C710      0.11500   0.08300   0.45400   0.00500   0.12200  -0.11700
C712      0.11900   0.09700   0.47000   0.01200   0.14400  -0.10000
O714      0.08200   0.07200   0.15800   0.04300  -0.04500  -0.02200
C715      0.18800   0.11500   0.45400   0.11000  -0.23900  -0.12200
C717      0.19200   0.11900   0.47000   0.10700  -0.24400  -0.14400
O719      0.06800   0.08200   0.15800   0.03900   0.02300   0.04500
C720      0.08300   0.18800   0.45400   0.07800   0.11700   0.23900
C722      0.09700   0.19200   0.47000   0.08500   0.10000   0.24400
O724      0.07200   0.06800   0.15800   0.02900  -0.02200   0.02300
C725      0.11500   0.08300   0.45400   0.00500  -0.12200   0.11700
C727      0.11900   0.09700   0.47000   0.01200  -0.14400   0.10000
O729      0.08200   0.07200   0.15800   0.04300   0.04500   0.02200
C730      0.18800   0.11500   0.45400   0.11000   0.23900   0.12200
C732      0.19200   0.11900   0.47000   0.10700   0.24400   0.14400
O734      0.06800   0.08200   0.15800   0.03900  -0.02300  -0.04500
C735      0.08300   0.18800   0.45400   0.07800  -0.11700  -0.23900
C737      0.09700   0.19200   0.47000   0.08500  -0.10000  -0.24400
Fe739     0.04780   0.04220   0.09320   0.02390   0.00000   0.00000
O740      0.04900   0.06450   0.15000   0.02450   0.00000   0.00000
Fe741     0.04220   0.04220   0.09320   0.01830   0.00000   0.00000
O742      0.06450   0.06450   0.15000   0.04000   0.00000   0.00000
Fe743     0.04220   0.04780   0.09320   0.02390   0.00000   0.00000
O744      0.06450   0.04900   0.15000   0.02450   0.00000   0.00000
O745      0.04800   0.04800   0.05600   0.02400   0.00000   0.00000
C746      0.04700   0.04700   0.08200   0.02600   0.00060  -0.00060
C747      0.05200   0.05200   0.10100   0.03100   0.00300  -0.00300
C748      0.06200   0.06200   0.08800   0.04000   0.00010  -0.00010
C749      0.06600   0.06600   0.09900   0.04600   0.00300  -0.00300
C750      0.07000   0.07000   0.07600   0.04500  -0.00200   0.00200
C751      0.05700   0.05700   0.07600   0.03000   0.00200  -0.00200
C753      0.04700   0.04200   0.08200   0.02100   0.00060   0.00120
C754      0.05200   0.04200   0.10100   0.02100   0.00300   0.00600
C755      0.06200   0.04400   0.08800   0.02200   0.00010   0.00020
C756      0.06600   0.04000   0.09900   0.02000   0.00300   0.00600
C757      0.07000   0.05000   0.07600   0.02500  -0.00200  -0.00400
C758      0.05700   0.05400   0.07600   0.02700   0.00200   0.00400
C760      0.04200   0.04700   0.08200   0.02100  -0.00120  -0.00060
C761      0.04200   0.05200   0.10100   0.02100  -0.00600  -0.00300
C762      0.04400   0.06200   0.08800   0.02200  -0.00020  -0.00010
C763      0.04000   0.06600   0.09900   0.02000  -0.00600  -0.00300
C764      0.05000   0.07000   0.07600   0.02500   0.00400   0.00200
C765      0.05400   0.05700   0.07600   0.02700  -0.00400  -0.00200
C767      0.04700   0.04700   0.08200   0.02600  -0.00060   0.00060
C768      0.05200   0.05200   0.10100   0.03100  -0.00300   0.00300
C769      0.06200   0.06200   0.08800   0.04000  -0.00010   0.00010
C770      0.06600   0.06600   0.09900   0.04600  -0.00300   0.00300
C771      0.07000   0.07000   0.07600   0.04500   0.00200  -0.00200
C772      0.05700   0.05700   0.07600   0.03000  -0.00200   0.00200
C774      0.04700   0.04200   0.08200   0.02100  -0.00060  -0.00120
C775      0.05200   0.04200   0.10100   0.02100  -0.00300  -0.00600
C776      0.06200   0.04400   0.08800   0.02200  -0.00010  -0.00020
C777      0.06600   0.04000   0.09900   0.02000  -0.00300  -0.00600
C778      0.07000   0.05000   0.07600   0.02500   0.00200   0.00400
C779      0.05700   0.05400   0.07600   0.02700  -0.00200  -0.00400
C781      0.04200   0.04700   0.08200   0.02100   0.00120   0.00060
C782      0.04200   0.05200   0.10100   0.02100   0.00600   0.00300
C783      0.04400   0.06200   0.08800   0.02200   0.00020   0.00010
C784      0.04000   0.06600   0.09900   0.02000   0.00600   0.00300
C785      0.05000   0.07000   0.07600   0.02500  -0.00400  -0.00200
C786      0.05400   0.05700   0.07600   0.02700   0.00400   0.00200
C788      0.03867   0.03867   0.07800   0.01933   0.00000   0.00000
C790      0.03867   0.03867   0.07800   0.01933   0.00000   0.00000
O792      0.06800   0.07200   0.15800   0.02900   0.02300  -0.02200
C793      0.08300   0.11500   0.45400   0.00500   0.11700  -0.12200
C795      0.09700   0.11900   0.47000   0.01200   0.10000  -0.14400
O797      0.07200   0.08200   0.15800   0.04300   0.02200   0.04500
C798      0.11500   0.18800   0.45400   0.11000   0.12200   0.23900
C800      0.11900   0.19200   0.47000   0.10700   0.14400   0.24400
O802      0.08200   0.06800   0.15800   0.03900  -0.04500  -0.02300
C803      0.18800   0.08300   0.45400   0.07800  -0.23900  -0.11700
C805      0.19200   0.09700   0.47000   0.08500  -0.24400  -0.10000
O807      0.06800   0.07200   0.15800   0.02900  -0.02300   0.02200
C808      0.08300   0.11500   0.45400   0.00500  -0.11700   0.12200
C810      0.09700   0.11900   0.47000   0.01200  -0.10000   0.14400
O812      0.07200   0.08200   0.15800   0.04300  -0.02200  -0.04500
C813      0.11500   0.18800   0.45400   0.11000  -0.12200  -0.23900
C815      0.11900   0.19200   0.47000   0.10700  -0.14400  -0.24400
O817      0.08200   0.06800   0.15800   0.03900   0.04500   0.02300
C818      0.18800   0.08300   0.45400   0.07800   0.23900   0.11700
C820      0.19200   0.09700   0.47000   0.08500   0.24400   0.10000
O822      0.07200   0.06800   0.15800   0.02900   0.02200  -0.02300
C823      0.11500   0.08300   0.45400   0.00500   0.12200  -0.11700
C825      0.11900   0.09700   0.47000   0.01200   0.14400  -0.10000
O827      0.08200   0.07200   0.15800   0.04300  -0.04500  -0.02200
C828      0.18800   0.11500   0.45400   0.11000  -0.23900  -0.12200
C830      0.19200   0.11900   0.47000   0.10700  -0.24400  -0.14400
O832      0.06800   0.08200   0.15800   0.03900   0.02300   0.04500
C833      0.08300   0.18800   0.45400   0.07800   0.11700   0.23900
C835      0.09700   0.19200   0.47000   0.08500   0.10000   0.24400
O837      0.07200   0.06800   0.15800   0.02900  -0.02200   0.02300
C838      0.11500   0.08300   0.45400   0.00500  -0.12200   0.11700
C840      0.11900   0.09700   0.47000   0.01200  -0.14400   0.10000
O842      0.08200   0.07200   0.15800   0.04300   0.04500   0.02200
C843      0.18800   0.11500   0.45400   0.11000   0.23900   0.12200
C845      0.19200   0.11900   0.47000   0.10700   0.24400   0.14400
O847      0.06800   0.08200   0.15800   0.03900  -0.02300  -0.04500
C848      0.08300   0.18800   0.45400   0.07800  -0.11700  -0.23900
C850      0.09700   0.19200   0.47000   0.08500  -0.10000  -0.24400
Fe852     0.04780   0.04220   0.09320   0.02390   0.00000   0.00000
O853      0.04900   0.06450   0.15000   0.02450   0.00000   0.00000
Fe854     0.04220   0.04220   0.09320   0.01830   0.00000   0.00000
O855      0.06450   0.06450   0.15000   0.04000   0.00000   0.00000
Fe856     0.04220   0.04780   0.09320   0.02390   0.00000   0.00000
O857      0.06450   0.04900   0.15000   0.02450   0.00000   0.00000
O858      0.04800   0.04800   0.05600   0.02400   0.00000   0.00000
C859      0.04700   0.04700   0.08200   0.02600   0.00060  -0.00060
C860      0.05200   0.05200   0.10100   0.03100   0.00300  -0.00300
C861      0.06200   0.06200   0.08800   0.04000   0.00010  -0.00010
C862      0.06600   0.06600   0.09900   0.04600   0.00300  -0.00300
C863      0.07000   0.07000   0.07600   0.04500  -0.00200   0.00200
C864      0.05700   0.05700   0.07600   0.03000   0.00200  -0.00200
C866      0.04700   0.04200   0.08200   0.02100   0.00060   0.00120
C867      0.05200   0.04200   0.10100   0.02100   0.00300   0.00600
C868      0.06200   0.04400   0.08800   0.02200   0.00010   0.00020
C869      0.06600   0.04000   0.09900   0.02000   0.00300   0.00600
C870      0.07000   0.05000   0.07600   0.02500  -0.00200  -0.00400
C871      0.05700   0.05400   0.07600   0.02700   0.00200   0.00400
C873      0.04200   0.04700   0.08200   0.02100  -0.00120  -0.00060
C874      0.04200   0.05200   0.10100   0.02100  -0.00600  -0.00300
C875      0.04400   0.06200   0.08800   0.02200  -0.00020  -0.00010
C876      0.04000   0.06600   0.09900   0.02000  -0.00600  -0.00300
C877      0.05000   0.07000   0.07600   0.02500   0.00400   0.00200
C878      0.05400   0.05700   0.07600   0.02700  -0.00400  -0.00200
C880      0.04700   0.04700   0.08200   0.02600  -0.00060   0.00060
C881      0.05200   0.05200   0.10100   0.03100  -0.00300   0.00300
C882      0.06200   0.06200   0.08800   0.04000  -0.00010   0.00010
C883      0.06600   0.06600   0.09900   0.04600  -0.00300   0.00300
C884      0.07000   0.07000   0.07600   0.04500   0.00200  -0.00200
C885      0.05700   0.05700   0.07600   0.03000  -0.00200   0.00200
C887      0.04700   0.04200   0.08200   0.02100  -0.00060  -0.00120
C888      0.05200   0.04200   0.10100   0.02100  -0.00300  -0.00600
C889      0.06200   0.04400   0.08800   0.02200  -0.00010  -0.00020
C890      0.06600   0.04000   0.09900   0.02000  -0.00300  -0.00600
C891      0.07000   0.05000   0.07600   0.02500   0.00200   0.00400
C892      0.05700   0.05400   0.07600   0.02700  -0.00200  -0.00400
C894      0.04200   0.04700   0.08200   0.02100   0.00120   0.00060
C895      0.04200   0.05200   0.10100   0.02100   0.00600   0.00300
C896      0.04400   0.06200   0.08800   0.02200   0.00020   0.00010
C897      0.04000   0.06600   0.09900   0.02000   0.00600   0.00300
C898      0.05000   0.07000   0.07600   0.02500  -0.00400  -0.00200
C899      0.05400   0.05700   0.07600   0.02700   0.00400   0.00200
C901      0.03867   0.03867   0.07800   0.01933   0.00000   0.00000
C903      0.03867   0.03867   0.07800   0.01933   0.00000   0.00000
loop_
_geom_bond_atom_site_label_1
_geom_bond_atom_site_label_2
_geom_bond_distance
_geom_bond_site_symmetry_2
_ccdc_geom_bond_type
O1     Fe513   1.984   .     S
O1     C72     1.254   .     D
C2     C71     1.315   .     S
C2     C4      1.329   .     D
C2     H3      0.950   .     S
C4     C69     1.321   .     S
C4     H5      0.950   .     S
O6     Fe515   1.984   .     S
O6     C79     1.254   .     D
C7     C78     1.315   .     S
C7     C235    1.329   1_545 D
C7     H8      0.950   .     S
C9     C76     1.321   .     S
C9     C233    1.329   .     D
C9     H10     0.950   .     S
O11    Fe517   1.984   .     S
O11    C86     1.254   .     D
C12    C85     1.315   .     S
C12    C127    1.329   .     D
C12    H13     0.950   .     S
C14    C83     1.321   .     S
C14    C125    1.329   1_455 D
C14    H15     0.950   .     S
O16    Fe61    1.984   .     S
O16    C93     1.254   .     D
C17    C92     1.315   .     S
C17    C19     1.329   .     D
C17    H18     0.950   .     S
C19    C90     1.321   .     S
C19    H20     0.950   .     S
O21    Fe63    1.984   .     S
O21    C100    1.254   .     D
C22    C99     1.315   .     D
C22    C250    1.329   1_545 S
C22    H23     0.950   .     S
C24    C97     1.321   .     S
C24    C248    1.329   .     D
C24    H25     0.950   .     S
O26    Fe65    1.984   .     S
O26    C107    1.254   .     D
C27    C106    1.315   .     D
C27    C142    1.329   .     S
C27    H28     0.950   .     S
C29    C104    1.321   .     S
C29    C140    1.329   1_455 D
C29    H30     0.950   .     S
O31    Fe517   1.984   .     S
O31    C72     1.254   .     S
C32    C71     1.315   .     D
C32    C34     1.329   .     S
C32    H33     0.950   .     S
C34    C69     1.321   .     D
C34    H35     0.950   .     S
O36    Fe515   1.984   .     S
O36    C86     1.254   .     S
C37    C85     1.315   .     D
C37    C152    1.329   .     S
C37    H38     0.950   .     S
C39    C83     1.321   .     D
C39    C150    1.329   1_455 S
C39    H40     0.950   .     S
O41    Fe513   1.984   .     S
O41    C79     1.254   .     S
C42    C78     1.315   .     D
C42    C270    1.329   1_545 S
C42    H43     0.950   .     S
C44    C76     1.321   .     D
C44    C268    1.329   .     S
C44    H45     0.950   .     S
O46    Fe65    1.984   .     S
O46    C93     1.254   .     S
C47    C92     1.315   .     D
C47    C49     1.329   .     S
C47    H48     0.950   .     S
C49    C90     1.321   .     D
C49    H50     0.950   .     S
O51    Fe63    1.984   .     S
O51    C107    1.254   .     S
C52    C106    1.315   .     S
C52    C167    1.329   .     D
C52    H53     0.950   .     S
C54    C104    1.321   .     D
C54    C165    1.329   1_455 S
C54    H55     0.950   .     S
O56    Fe61    1.984   .     S
O56    C100    1.254   .     S
C57    C99     1.315   .     S
C57    C285    1.329   1_545 D
C57    H58     0.950   .     S
C59    C97     1.321   .     D
C59    C283    1.329   .     S
C59    H60     0.950   .     S
Fe61   O62     1.999   .     S
Fe61   O67     1.920   .     S
Fe61   O453    1.984   1_554 S
Fe61   O493    1.984   1_554 S
Fe63   O64     1.999   .     S
Fe63   O67     1.920   .     S
Fe63   O458    1.984   1_554 S
Fe63   O488    1.984   1_554 S
Fe65   O66     1.999   .     S
Fe65   O67     1.920   .     S
Fe65   O463    1.984   1_554 S
Fe65   O483    1.984   1_554 S
C68    C110    1.501   .     S
C68    C73     1.404   .     S
C68    C89     1.397   .     D
C69    C72     1.453   .     S
C70    C71     1.456   .     S
C70    C73     1.400   .     D
C70    C91     1.410   .     S
C73    H74     0.950   .     S
C75    C110    1.501   .     S
C75    C80     1.404   .     S
C75    C96     1.397   .     D
C76    C79     1.453   .     S
C77    C78     1.456   .     S
C77    C80     1.400   .     D
C77    C98     1.410   .     S
C80    H81     0.950   .     S
C82    C110    1.501   .     S
C82    C87     1.404   .     S
C82    C103    1.397   .     D
C83    C86     1.453   .     S
C84    C85     1.456   .     S
C84    C87     1.400   .     D
C84    C105    1.410   .     S
C87    H88     0.950   .     S
C89    C112    1.501   .     S
C89    C94     1.404   .     S
C90    C93     1.453   .     S
C91    C92     1.456   .     S
C91    C94     1.400   .     D
C94    H95     0.950   .     S
C96    C112    1.501   .     S
C96    C101    1.404   .     S
C97    C100    1.453   .     S
C98    C99     1.456   .     S
C98    C101    1.400   .     D
C101   H102    0.950   .     S
C103   C112    1.501   .     S
C103   C108    1.404   .     S
C104   C107    1.453   .     S
C105   C106    1.456   .     S
C105   C108    1.400   .     D
C108   H109    0.950   .     S
C110   H111    1.000   .     S
C112   H113    1.000   .     S
O114   Fe626   1.984   .     S
O114   C185    1.254   .     D
C115   C184    1.315   .     S
C115   C117    1.329   .     D
C115   H116    0.950   .     S
C117   C182    1.321   .     S
C117   H118    0.950   .     S
O119   Fe628   1.984   .     S
O119   C192    1.254   .     D
C120   C191    1.315   .     S
C120   C348    1.329   1_545 D
C120   H121    0.950   .     S
C122   C189    1.321   .     S
C122   C346    1.329   .     D
C122   H123    0.950   .     S
O124   Fe630   1.984   .     S
O124   C199    1.254   .     D
C125   C198    1.315   .     S
C125   C14     1.329   1_655 D
C125   H126    0.950   .     S
C127   C196    1.321   .     S
C127   H128    0.950   .     S
O129   Fe174   1.984   .     S
O129   C206    1.254   .     D
C130   C205    1.315   .     S
C130   C132    1.329   .     D
C130   H131    0.950   .     S
C132   C203    1.321   .     S
C132   H133    0.950   .     S
O134   Fe176   1.984   .     S
O134   C213    1.254   .     D
C135   C212    1.315   .     D
C135   C363    1.329   1_545 S
C135   H136    0.950   .     S
C137   C210    1.321   .     S
C137   C361    1.329   .     D
C137   H138    0.950   .     S
O139   Fe178   1.984   .     S
O139   C220    1.254   .     D
C140   C219    1.315   .     S
C140   C29     1.329   1_655 D
C140   H141    0.950   .     S
C142   C217    1.321   .     D
C142   H143    0.950   .     S
O144   Fe630   1.984   .     S
O144   C185    1.254   .     S
C145   C184    1.315   .     D
C145   C147    1.329   .     S
C145   H146    0.950   .     S
C147   C182    1.321   .     D
C147   H148    0.950   .     S
O149   Fe628   1.984   .     S
O149   C199    1.254   .     S
C150   C198    1.315   .     D
C150   C39     1.329   1_655 S
C150   H151    0.950   .     S
C152   C196    1.321   .     D
C152   H153    0.950   .     S
O154   Fe626   1.984   .     S
O154   C192    1.254   .     S
C155   C191    1.315   .     D
C155   C383    1.329   1_545 S
C155   H156    0.950   .     S
C157   C189    1.321   .     D
C157   C381    1.329   .     S
C157   H158    0.950   .     S
O159   Fe178   1.984   .     S
O159   C206    1.254   .     S
C160   C205    1.315   .     D
C160   C162    1.329   .     S
C160   H161    0.950   .     S
C162   C203    1.321   .     D
C162   H163    0.950   .     S
O164   Fe176   1.984   .     S
O164   C220    1.254   .     S
C165   C219    1.315   .     D
C165   C54     1.329   1_655 S
C165   H166    0.950   .     S
C167   C217    1.321   .     S
C167   H168    0.950   .     S
O169   Fe174   1.984   .     S
O169   C213    1.254   .     S
C170   C212    1.315   .     S
C170   C398    1.329   1_545 D
C170   H171    0.950   .     S
C172   C210    1.321   .     D
C172   C396    1.329   .     S
C172   H173    0.950   .     S
Fe174  O175    1.999   .     S
Fe174  O180    1.920   .     S
Fe174  O566    1.984   1_554 S
Fe174  O606    1.984   1_554 S
Fe176  O177    1.999   .     S
Fe176  O180    1.920   .     S
Fe176  O571    1.984   1_554 S
Fe176  O601    1.984   1_554 S
Fe178  O179    1.999   .     S
Fe178  O180    1.920   .     S
Fe178  O576    1.984   1_554 S
Fe178  O596    1.984   1_554 S
C181   C223    1.501   .     S
C181   C186    1.404   .     S
C181   C202    1.397   .     D
C182   C185    1.453   .     S
C183   C184    1.456   .     S
C183   C186    1.400   .     D
C183   C204    1.410   .     S
C186   H187    0.950   .     S
C188   C223    1.501   .     S
C188   C193    1.404   .     S
C188   C209    1.397   .     D
C189   C192    1.453   .     S
C190   C191    1.456   .     S
C190   C193    1.400   .     D
C190   C211    1.410   .     S
C193   H194    0.950   .     S
C195   C223    1.501   .     S
C195   C200    1.404   .     D
C195   C216    1.397   .     S
C196   C199    1.453   .     S
C197   C198    1.456   .     S
C197   C200    1.400   .     S
C197   C218    1.410   .     D
C200   H201    0.950   .     S
C202   C225    1.501   .     S
C202   C207    1.404   .     S
C203   C206    1.453   .     S
C204   C205    1.456   .     S
C204   C207    1.400   .     D
C207   H208    0.950   .     S
C209   C225    1.501   .     S
C209   C214    1.404   .     S
C210   C213    1.453   .     S
C211   C212    1.456   .     S
C211   C214    1.400   .     D
C214   H215    0.950   .     S
C216   C225    1.501   .     S
C216   C221    1.404   .     D
C217   C220    1.453   .     S
C218   C219    1.456   .     S
C218   C221    1.400   .     S
C221   H222    0.950   .     S
C223   H224    1.000   .     S
C225   H226    1.000   .     S
O227   Fe739   1.984   .     S
O227   C298    1.254   .     D
C228   C297    1.315   .     S
C228   C230    1.329   .     D
C228   H229    0.950   .     S
C230   C295    1.321   .     S
C230   H231    0.950   .     S
O232   Fe741   1.984   .     S
O232   C305    1.254   .     D
C233   C304    1.315   .     S
C233   H234    0.950   .     S
C235   C302    1.321   .     S
C235   C7      1.329   1_565 D
C235   H236    0.950   .     S
O237   Fe743   1.984   .     S
O237   C312    1.254   .     D
C238   C311    1.315   .     S
C238   C353    1.329   .     D
C238   H239    0.950   .     S
C240   C309    1.321   .     S
C240   C351    1.329   1_455 D
C240   H241    0.950   .     S
O242   Fe287   1.984   .     S
O242   C319    1.254   .     D
C243   C318    1.315   .     S
C243   C245    1.329   .     D
C243   H244    0.950   .     S
C245   C316    1.321   .     S
C245   H246    0.950   .     S
O247   Fe289   1.984   .     S
O247   C326    1.254   .     D
C248   C325    1.315   .     S
C248   H249    0.950   .     S
C250   C323    1.321   .     D
C250   C22     1.329   1_565 S
C250   H251    0.950   .     S
O252   Fe291   1.984   .     S
O252   C333    1.254   .     D
C253   C332    1.315   .     D
C253   C368    1.329   .     S
C253   H254    0.950   .     S
C255   C330    1.321   .     S
C255   C366    1.329   1_455 D
C255   H256    0.950   .     S
O257   Fe743   1.984   .     S
O257   C298    1.254   .     S
C258   C297    1.315   .     D
C258   C260    1.329   .     S
C258   H259    0.950   .     S
C260   C295    1.321   .     D
C260   H261    0.950   .     S
O262   Fe741   1.984   .     S
O262   C312    1.254   .     S
C263   C311    1.315   .     D
C263   C378    1.329   .     S
C263   H264    0.950   .     S
C265   C309    1.321   .     D
C265   C376    1.329   1_455 S
C265   H266    0.950   .     S
O267   Fe739   1.984   .     S
O267   C305    1.254   .     S
C268   C304    1.315   .     D
C268   H269    0.950   .     S
C270   C302    1.321   .     D
C270   C42     1.329   1_565 S
C270   H271    0.950   .     S
O272   Fe291   1.984   .     S
O272   C319    1.254   .     S
C273   C318    1.315   .     D
C273   C275    1.329   .     S
C273   H274    0.950   .     S
C275   C316    1.321   .     D
C275   H276    0.950   .     S
O277   Fe289   1.984   .     S
O277   C333    1.254   .     S
C278   C332    1.315   .     S
C278   C393    1.329   .     D
C278   H279    0.950   .     S
C280   C330    1.321   .     D
C280   C391    1.329   1_455 S
C280   H281    0.950   .     S
O282   Fe287   1.984   .     S
O282   C326    1.254   .     S
C283   C325    1.315   .     D
C283   H284    0.950   .     S
C285   C323    1.321   .     S
C285   C57     1.329   1_565 D
C285   H286    0.950   .     S
Fe287  O288    1.999   .     S
Fe287  O293    1.920   .     S
Fe287  O679    1.984   1_554 S
Fe287  O719    1.984   1_554 S
Fe289  O290    1.999   .     S
Fe289  O293    1.920   .     S
Fe289  O684    1.984   1_554 S
Fe289  O714    1.984   1_554 S
Fe291  O292    1.999   .     S
Fe291  O293    1.920   .     S
Fe291  O689    1.984   1_554 S
Fe291  O709    1.984   1_554 S
C294   C336    1.501   .     S
C294   C299    1.404   .     S
C294   C315    1.397   .     D
C295   C298    1.453   .     S
C296   C297    1.456   .     S
C296   C299    1.400   .     D
C296   C317    1.410   .     S
C299   H300    0.950   .     S
C301   C336    1.501   .     S
C301   C306    1.404   .     D
C301   C322    1.397   .     S
C302   C305    1.453   .     S
C303   C304    1.456   .     S
C303   C306    1.400   .     S
C303   C324    1.410   .     D
C306   H307    0.950   .     S
C308   C336    1.501   .     S
C308   C313    1.404   .     S
C308   C329    1.397   .     D
C309   C312    1.453   .     S
C310   C311    1.456   .     S
C310   C313    1.400   .     D
C310   C331    1.410   .     S
C313   H314    0.950   .     S
C315   C338    1.501   .     S
C315   C320    1.404   .     S
C316   C319    1.453   .     S
C317   C318    1.456   .     S
C317   C320    1.400   .     D
C320   H321    0.950   .     S
C322   C338    1.501   .     S
C322   C327    1.404   .     D
C323   C326    1.453   .     S
C324   C325    1.456   .     S
C324   C327    1.400   .     S
C327   H328    0.950   .     S
C329   C338    1.501   .     S
C329   C334    1.404   .     S
C330   C333    1.453   .     S
C331   C332    1.456   .     S
C331   C334    1.400   .     D
C334   H335    0.950   .     S
C336   H337    1.000   .     S
C338   H339    1.000   .     S
O340   Fe852   1.984   .     S
O340   C411    1.254   .     D
C341   C410    1.315   .     S
C341   C343    1.329   .     D
C341   H342    0.950   .     S
C343   C408    1.321   .     S
C343   H344    0.950   .     S
O345   Fe854   1.984   .     S
O345   C418    1.254   .     D
C346   C417    1.315   .     S
C346   H347    0.950   .     S
C348   C415    1.321   .     S
C348   C120    1.329   1_565 D
C348   H349    0.950   .     S
O350   Fe856   1.984   .     S
O350   C425    1.254   .     D
C351   C424    1.315   .     S
C351   C240    1.329   1_655 D
C351   H352    0.950   .     S
C353   C422    1.321   .     S
C353   H354    0.950   .     S
O355   Fe400   1.984   .     S
O355   C432    1.254   .     D
C356   C431    1.315   .     S
C356   C358    1.329   .     D
C356   H357    0.950   .     S
C358   C429    1.321   .     S
C358   H359    0.950   .     S
O360   Fe402   1.984   .     S
O360   C439    1.254   .     D
C361   C438    1.315   .     S
C361   H362    0.950   .     S
C363   C436    1.321   .     D
C363   C135    1.329   1_565 S
C363   H364    0.950   .     S
O365   Fe404   1.984   .     S
O365   C446    1.254   .     D
C366   C445    1.315   .     S
C366   C255    1.329   1_655 D
C366   H367    0.950   .     S
C368   C443    1.321   .     D
C368   H369    0.950   .     S
O370   Fe856   1.984   .     S
O370   C411    1.254   .     S
C371   C410    1.315   .     D
C371   C373    1.329   .     S
C371   H372    0.950   .     S
C373   C408    1.321   .     D
C373   H374    0.950   .     S
O375   Fe854   1.984   .     S
O375   C425    1.254   .     S
C376   C424    1.315   .     D
C376   C265    1.329   1_655 S
C376   H377    0.950   .     S
C378   C422    1.321   .     D
C378   H379    0.950   .     S
O380   Fe852   1.984   .     S
O380   C418    1.254   .     S
C381   C417    1.315   .     D
C381   H382    0.950   .     S
C383   C415    1.321   .     D
C383   C155    1.329   1_565 S
C383   H384    0.950   .     S
O385   Fe404   1.984   .     S
O385   C432    1.254   .     S
C386   C431    1.315   .     D
C386   C388    1.329   .     S
C386   H387    0.950   .     S
C388   C429    1.321   .     D
C388   H389    0.950   .     S
O390   Fe402   1.984   .     S
O390   C446    1.254   .     S
C391   C445    1.315   .     D
C391   C280    1.329   1_655 S
C391   H392    0.950   .     S
C393   C443    1.321   .     S
C393   H394    0.950   .     S
O395   Fe400   1.984   .     S
O395   C439    1.254   .     S
C396   C438    1.315   .     D
C396   H397    0.950   .     S
C398   C436    1.321   .     S
C398   C170    1.329   1_565 D
C398   H399    0.950   .     S
Fe400  O401    1.999   .     S
Fe400  O406    1.920   .     S
Fe400  O792    1.984   1_554 S
Fe400  O832    1.984   1_554 S
Fe402  O403    1.999   .     S
Fe402  O406    1.920   .     S
Fe402  O797    1.984   1_554 S
Fe402  O827    1.984   1_554 S
Fe404  O405    1.999   .     S
Fe404  O406    1.920   .     S
Fe404  O802    1.984   1_554 S
Fe404  O822    1.984   1_554 S
C407   C449    1.501   .     S
C407   C412    1.404   .     S
C407   C428    1.397   .     D
C408   C411    1.453   .     S
C409   C410    1.456   .     S
C409   C412    1.400   .     D
C409   C430    1.410   .     S
C412   H413    0.950   .     S
C414   C449    1.501   .     S
C414   C419    1.404   .     S
C414   C435    1.397   .     D
C415   C418    1.453   .     S
C416   C417    1.456   .     S
C416   C419    1.400   .     D
C416   C437    1.410   .     S
C419   H420    0.950   .     S
C421   C449    1.501   .     S
C421   C426    1.404   .     D
C421   C442    1.397   .     S
C422   C425    1.453   .     S
C423   C424    1.456   .     S
C423   C426    1.400   .     S
C423   C444    1.410   .     D
C426   H427    0.950   .     S
C428   C451    1.501   .     S
C428   C433    1.404   .     S
C429   C432    1.453   .     S
C430   C431    1.456   .     S
C430   C433    1.400   .     D
C433   H434    0.950   .     S
C435   C451    1.501   .     S
C435   C440    1.404   .     S
C436   C439    1.453   .     S
C437   C438    1.456   .     S
C437   C440    1.400   .     D
C440   H441    0.950   .     S
C442   C451    1.501   .     S
C442   C447    1.404   .     D
C443   C446    1.453   .     S
C444   C445    1.456   .     S
C444   C447    1.400   .     S
C447   H448    0.950   .     S
C449   H450    1.000   .     S
C451   H452    1.000   .     S
O453   Fe61    1.984   1_556 S
O453   C524    1.254   .     D
C454   C523    1.315   .     S
C454   C456    1.329   .     D
C454   H455    0.950   .     S
C456   C521    1.321   .     S
C456   H457    0.950   .     S
O458   Fe63    1.984   1_556 S
O458   C531    1.254   .     D
C459   C530    1.315   .     D
C459   C687    1.329   1_545 S
C459   H460    0.950   .     S
C461   C528    1.321   .     S
C461   C685    1.329   .     D
C461   H462    0.950   .     S
O463   Fe65    1.984   1_556 S
O463   C538    1.254   .     D
C464   C537    1.315   .     S
C464   C579    1.329   .     D
C464   H465    0.950   .     S
C466   C535    1.321   .     S
C466   C577    1.329   1_455 D
C466   H467    0.950   .     S
O468   Fe513   1.984   .     S
O468   C545    1.254   .     D
C469   C544    1.315   .     S
C469   C471    1.329   .     D
C469   H470    0.950   .     S
C471   C542    1.321   .     S
C471   H472    0.950   .     S
O473   Fe515   1.984   .     S
O473   C552    1.254   .     D
C474   C551    1.315   .     S
C474   C702    1.329   1_545 D
C474   H475    0.950   .     S
C476   C549    1.321   .     S
C476   C700    1.329   .     D
C476   H477    0.950   .     S
O478   Fe517   1.984   .     S
O478   C559    1.254   .     D
C479   C558    1.315   .     D
C479   C594    1.329   .     S
C479   H480    0.950   .     S
C481   C556    1.321   .     S
C481   C592    1.329   1_455 D
C481   H482    0.950   .     S
O483   Fe65    1.984   1_556 S
O483   C524    1.254   .     S
C484   C523    1.315   .     D
C484   C486    1.329   .     S
C484   H485    0.950   .     S
C486   C521    1.321   .     D
C486   H487    0.950   .     S
O488   Fe63    1.984   1_556 S
O488   C538    1.254   .     S
C489   C537    1.315   .     D
C489   C604    1.329   .     S
C489   H490    0.950   .     S
C491   C535    1.321   .     D
C491   C602    1.329   1_455 S
C491   H492    0.950   .     S
O493   Fe61    1.984   1_556 S
O493   C531    1.254   .     S
C494   C530    1.315   .     S
C494   C722    1.329   1_545 D
C494   H495    0.950   .     S
C496   C528    1.321   .     D
C496   C720    1.329   .     S
C496   H497    0.950   .     S
O498   Fe517   1.984   .     S
O498   C545    1.254   .     S
C499   C544    1.315   .     D
C499   C501    1.329   .     S
C499   H500    0.950   .     S
C501   C542    1.321   .     D
C501   H502    0.950   .     S
O503   Fe515   1.984   .     S
O503   C559    1.254   .     S
C504   C558    1.315   .     S
C504   C619    1.329   .     D
C504   H505    0.950   .     S
C506   C556    1.321   .     D
C506   C617    1.329   1_455 S
C506   H507    0.950   .     S
O508   Fe513   1.984   .     S
O508   C552    1.254   .     S
C509   C551    1.315   .     D
C509   C737    1.329   1_545 S
C509   H510    0.950   .     S
C511   C549    1.321   .     D
C511   C735    1.329   .     S
C511   H512    0.950   .     S
Fe513  O514    1.999   .     S
Fe513  O519    1.920   .     S
Fe515  O516    1.999   .     S
Fe515  O519    1.920   .     S
Fe517  O518    1.999   .     S
Fe517  O519    1.920   .     S
C520   C562    1.501   .     S
C520   C525    1.404   .     S
C520   C541    1.397   .     D
C521   C524    1.453   .     S
C522   C523    1.456   .     S
C522   C525    1.400   .     D
C522   C543    1.410   .     S
C525   H526    0.950   .     S
C527   C562    1.501   .     S
C527   C532    1.404   .     S
C527   C548    1.397   .     D
C528   C531    1.453   .     S
C529   C530    1.456   .     S
C529   C532    1.400   .     D
C529   C550    1.410   .     S
C532   H533    0.950   .     S
C534   C562    1.501   .     S
C534   C539    1.404   .     S
C534   C555    1.397   .     D
C535   C538    1.453   .     S
C536   C537    1.456   .     S
C536   C539    1.400   .     D
C536   C557    1.410   .     S
C539   H540    0.950   .     S
C541   C564    1.501   .     S
C541   C546    1.404   .     S
C542   C545    1.453   .     S
C543   C544    1.456   .     S
C543   C546    1.400   .     D
C546   H547    0.950   .     S
C548   C564    1.501   .     S
C548   C553    1.404   .     S
C549   C552    1.453   .     S
C550   C551    1.456   .     S
C550   C553    1.400   .     D
C553   H554    0.950   .     S
C555   C564    1.501   .     S
C555   C560    1.404   .     S
C556   C559    1.453   .     S
C557   C558    1.456   .     S
C557   C560    1.400   .     D
C560   H561    0.950   .     S
C562   H563    1.000   .     S
C564   H565    1.000   .     S
O566   Fe174   1.984   1_556 S
O566   C637    1.254   .     D
C567   C636    1.315   .     S
C567   C569    1.329   .     D
C567   H568    0.950   .     S
C569   C634    1.321   .     S
C569   H570    0.950   .     S
O571   Fe176   1.984   1_556 S
O571   C644    1.254   .     D
C572   C643    1.315   .     D
C572   C800    1.329   1_545 S
C572   H573    0.950   .     S
C574   C641    1.321   .     S
C574   C798    1.329   .     D
C574   H575    0.950   .     S
O576   Fe178   1.984   1_556 S
O576   C651    1.254   .     D
C577   C650    1.315   .     S
C577   C466    1.329   1_655 D
C577   H578    0.950   .     S
C579   C648    1.321   .     S
C579   H580    0.950   .     S
O581   Fe626   1.984   .     S
O581   C658    1.254   .     D
C582   C657    1.315   .     S
C582   C584    1.329   .     D
C582   H583    0.950   .     S
C584   C655    1.321   .     S
C584   H585    0.950   .     S
O586   Fe628   1.984   .     S
O586   C665    1.254   .     D
C587   C664    1.315   .     S
C587   C815    1.329   1_545 D
C587   H588    0.950   .     S
C589   C662    1.321   .     S
C589   C813    1.329   .     D
C589   H590    0.950   .     S
O591   Fe630   1.984   .     S
O591   C672    1.254   .     D
C592   C671    1.315   .     S
C592   C481    1.329   1_655 D
C592   H593    0.950   .     S
C594   C669    1.321   .     D
C594   H595    0.950   .     S
O596   Fe178   1.984   1_556 S
O596   C637    1.254   .     S
C597   C636    1.315   .     D
C597   C599    1.329   .     S
C597   H598    0.950   .     S
C599   C634    1.321   .     D
C599   H600    0.950   .     S
O601   Fe176   1.984   1_556 S
O601   C651    1.254   .     S
C602   C650    1.315   .     D
C602   C491    1.329   1_655 S
C602   H603    0.950   .     S
C604   C648    1.321   .     D
C604   H605    0.950   .     S
O606   Fe174   1.984   1_556 S
O606   C644    1.254   .     S
C607   C643    1.315   .     S
C607   C835    1.329   1_545 D
C607   H608    0.950   .     S
C609   C641    1.321   .     D
C609   C833    1.329   .     S
C609   H610    0.950   .     S
O611   Fe630   1.984   .     S
O611   C658    1.254   .     S
C612   C657    1.315   .     D
C612   C614    1.329   .     S
C612   H613    0.950   .     S
C614   C655    1.321   .     D
C614   H615    0.950   .     S
O616   Fe628   1.984   .     S
O616   C672    1.254   .     S
C617   C671    1.315   .     D
C617   C506    1.329   1_655 S
C617   H618    0.950   .     S
C619   C669    1.321   .     S
C619   H620    0.950   .     S
O621   Fe626   1.984   .     S
O621   C665    1.254   .     S
C622   C664    1.315   .     D
C622   C850    1.329   1_545 S
C622   H623    0.950   .     S
C624   C662    1.321   .     D
C624   C848    1.329   .     S
C624   H625    0.950   .     S
Fe626  O627    1.999   .     S
Fe626  O632    1.920   .     S
Fe628  O629    1.999   .     S
Fe628  O632    1.920   .     S
Fe630  O631    1.999   .     S
Fe630  O632    1.920   .     S
C633   C675    1.501   .     S
C633   C638    1.404   .     S
C633   C654    1.397   .     D
C634   C637    1.453   .     S
C635   C636    1.456   .     S
C635   C638    1.400   .     D
C635   C656    1.410   .     S
C638   H639    0.950   .     S
C640   C675    1.501   .     S
C640   C645    1.404   .     S
C640   C661    1.397   .     D
C641   C644    1.453   .     S
C642   C643    1.456   .     S
C642   C645    1.400   .     D
C642   C663    1.410   .     S
C645   H646    0.950   .     S
C647   C675    1.501   .     S
C647   C652    1.404   .     D
C647   C668    1.397   .     S
C648   C651    1.453   .     S
C649   C650    1.456   .     S
C649   C652    1.400   .     S
C649   C670    1.410   .     D
C652   H653    0.950   .     S
C654   C677    1.501   .     S
C654   C659    1.404   .     S
C655   C658    1.453   .     S
C656   C657    1.456   .     S
C656   C659    1.400   .     D
C659   H660    0.950   .     S
C661   C677    1.501   .     S
C661   C666    1.404   .     S
C662   C665    1.453   .     S
C663   C664    1.456   .     S
C663   C666    1.400   .     D
C666   H667    0.950   .     S
C668   C677    1.501   .     S
C668   C673    1.404   .     D
C669   C672    1.453   .     S
C670   C671    1.456   .     S
C670   C673    1.400   .     S
C673   H674    0.950   .     S
C675   H676    1.000   .     S
C677   H678    1.000   .     S
O679   Fe287   1.984   1_556 S
O679   C750    1.254   .     D
C680   C749    1.315   .     S
C680   C682    1.329   .     D
C680   H681    0.950   .     S
C682   C747    1.321   .     S
C682   H683    0.950   .     S
O684   Fe289   1.984   1_556 S
O684   C757    1.254   .     D
C685   C756    1.315   .     S
C685   H686    0.950   .     S
C687   C754    1.321   .     D
C687   C459    1.329   1_565 S
C687   H688    0.950   .     S
O689   Fe291   1.984   1_556 S
O689   C764    1.254   .     D
C690   C763    1.315   .     S
C690   C805    1.329   .     D
C690   H691    0.950   .     S
C692   C761    1.321   .     S
C692   C803    1.329   1_455 D
C692   H693    0.950   .     S
O694   Fe739   1.984   .     S
O694   C771    1.254   .     D
C695   C770    1.315   .     S
C695   C697    1.329   .     D
C695   H696    0.950   .     S
C697   C768    1.321   .     S
C697   H698    0.950   .     S
O699   Fe741   1.984   .     S
O699   C778    1.254   .     D
C700   C777    1.315   .     S
C700   H701    0.950   .     S
C702   C775    1.321   .     S
C702   C474    1.329   1_565 D
C702   H703    0.950   .     S
O704   Fe743   1.984   .     S
O704   C785    1.254   .     D
C705   C784    1.315   .     D
C705   C820    1.329   .     S
C705   H706    0.950   .     S
C707   C782    1.321   .     S
C707   C818    1.329   1_455 D
C707   H708    0.950   .     S
O709   Fe291   1.984   1_556 S
O709   C750    1.254   .     S
C710   C749    1.315   .     D
C710   C712    1.329   .     S
C710   H711    0.950   .     S
C712   C747    1.321   .     D
C712   H713    0.950   .     S
O714   Fe289   1.984   1_556 S
O714   C764    1.254   .     S
C715   C763    1.315   .     D
C715   C830    1.329   .     S
C715   H716    0.950   .     S
C717   C761    1.321   .     D
C717   C828    1.329   1_455 S
C717   H718    0.950   .     S
O719   Fe287   1.984   1_556 S
O719   C757    1.254   .     S
C720   C756    1.315   .     D
C720   H721    0.950   .     S
C722   C754    1.321   .     S
C722   C494    1.329   1_565 D
C722   H723    0.950   .     S
O724   Fe743   1.984   .     S
O724   C771    1.254   .     S
C725   C770    1.315   .     D
C725   C727    1.329   .     S
C725   H726    0.950   .     S
C727   C768    1.321   .     D
C727   H728    0.950   .     S
O729   Fe741   1.984   .     S
O729   C785    1.254   .     S
C730   C784    1.315   .     S
C730   C845    1.329   .     D
C730   H731    0.950   .     S
C732   C782    1.321   .     D
C732   C843    1.329   1_455 S
C732   H733    0.950   .     S
O734   Fe739   1.984   .     S
O734   C778    1.254   .     S
C735   C777    1.315   .     D
C735   H736    0.950   .     S
C737   C775    1.321   .     D
C737   C509    1.329   1_565 S
C737   H738    0.950   .     S
Fe739  O740    1.999   .     S
Fe739  O745    1.920   .     S
Fe741  O742    1.999   .     S
Fe741  O745    1.920   .     S
Fe743  O744    1.999   .     S
Fe743  O745    1.920   .     S
C746   C788    1.501   .     S
C746   C751    1.404   .     S
C746   C767    1.397   .     D
C747   C750    1.453   .     S
C748   C749    1.456   .     S
C748   C751    1.400   .     D
C748   C769    1.410   .     S
C751   H752    0.950   .     S
C753   C788    1.501   .     S
C753   C758    1.404   .     S
C753   C774    1.397   .     D
C754   C757    1.453   .     S
C755   C756    1.456   .     S
C755   C758    1.400   .     D
C755   C776    1.410   .     S
C758   H759    0.950   .     S
C760   C788    1.501   .     S
C760   C765    1.404   .     S
C760   C781    1.397   .     D
C761   C764    1.453   .     S
C762   C763    1.456   .     S
C762   C765    1.400   .     D
C762   C783    1.410   .     S
C765   H766    0.950   .     S
C767   C790    1.501   .     S
C767   C772    1.404   .     S
C768   C771    1.453   .     S
C769   C770    1.456   .     S
C769   C772    1.400   .     D
C772   H773    0.950   .     S
C774   C790    1.501   .     S
C774   C779    1.404   .     S
C775   C778    1.453   .     S
C776   C777    1.456   .     S
C776   C779    1.400   .     D
C779   H780    0.950   .     S
C781   C790    1.501   .     S
C781   C786    1.404   .     S
C782   C785    1.453   .     S
C783   C784    1.456   .     S
C783   C786    1.400   .     D
C786   H787    0.950   .     S
C788   H789    1.000   .     S
C790   H791    1.000   .     S
O792   Fe400   1.984   1_556 S
O792   C863    1.254   .     D
C793   C862    1.315   .     S
C793   C795    1.329   .     D
C793   H794    0.950   .     S
C795   C860    1.321   .     S
C795   H796    0.950   .     S
O797   Fe402   1.984   1_556 S
O797   C870    1.254   .     D
C798   C869    1.315   .     S
C798   H799    0.950   .     S
C800   C867    1.321   .     D
C800   C572    1.329   1_565 S
C800   H801    0.950   .     S
O802   Fe404   1.984   1_556 S
O802   C877    1.254   .     D
C803   C876    1.315   .     S
C803   C692    1.329   1_655 D
C803   H804    0.950   .     S
C805   C874    1.321   .     S
C805   H806    0.950   .     S
O807   Fe852   1.984   .     S
O807   C884    1.254   .     D
C808   C883    1.315   .     S
C808   C810    1.329   .     D
C808   H809    0.950   .     S
C810   C881    1.321   .     S
C810   H811    0.950   .     S
O812   Fe854   1.984   .     S
O812   C891    1.254   .     D
C813   C890    1.315   .     S
C813   H814    0.950   .     S
C815   C888    1.321   .     S
C815   C587    1.329   1_565 D
C815   H816    0.950   .     S
O817   Fe856   1.984   .     S
O817   C898    1.254   .     D
C818   C897    1.315   .     S
C818   C707    1.329   1_655 D
C818   H819    0.950   .     S
C820   C895    1.321   .     D
C820   H821    0.950   .     S
O822   Fe404   1.984   1_556 S
O822   C863    1.254   .     S
C823   C862    1.315   .     D
C823   C825    1.329   .     S
C823   H824    0.950   .     S
C825   C860    1.321   .     D
C825   H826    0.950   .     S
O827   Fe402   1.984   1_556 S
O827   C877    1.254   .     S
C828   C876    1.315   .     D
C828   C717    1.329   1_655 S
C828   H829    0.950   .     S
C830   C874    1.321   .     D
C830   H831    0.950   .     S
O832   Fe400   1.984   1_556 S
O832   C870    1.254   .     S
C833   C869    1.315   .     D
C833   H834    0.950   .     S
C835   C867    1.321   .     S
C835   C607    1.329   1_565 D
C835   H836    0.950   .     S
O837   Fe856   1.984   .     S
O837   C884    1.254   .     S
C838   C883    1.315   .     D
C838   C840    1.329   .     S
C838   H839    0.950   .     S
C840   C881    1.321   .     D
C840   H841    0.950   .     S
O842   Fe854   1.984   .     S
O842   C898    1.254   .     S
C843   C897    1.315   .     D
C843   C732    1.329   1_655 S
C843   H844    0.950   .     S
C845   C895    1.321   .     S
C845   H846    0.950   .     S
O847   Fe852   1.984   .     S
O847   C891    1.254   .     S
C848   C890    1.315   .     D
C848   H849    0.950   .     S
C850   C888    1.321   .     D
C850   C622    1.329   1_565 S
C850   H851    0.950   .     S
Fe852  O853    1.999   .     S
Fe852  O858    1.920   .     S
Fe854  O855    1.999   .     S
Fe854  O858    1.920   .     S
Fe856  O857    1.999   .     S
Fe856  O858    1.920   .     S
C859   C901    1.501   .     S
C859   C864    1.404   .     S
C859   C880    1.397   .     D
C860   C863    1.453   .     S
C861   C862    1.456   .     S
C861   C864    1.400   .     D
C861   C882    1.410   .     S
C864   H865    0.950   .     S
C866   C901    1.501   .     S
C866   C871    1.404   .     S
C866   C887    1.397   .     D
C867   C870    1.453   .     S
C868   C869    1.456   .     S
C868   C871    1.400   .     D
C868   C889    1.410   .     S
C871   H872    0.950   .     S
C873   C901    1.501   .     S
C873   C878    1.404   .     D
C873   C894    1.397   .     S
C874   C877    1.453   .     S
C875   C876    1.456   .     S
C875   C878    1.400   .     S
C875   C896    1.410   .     D
C878   H879    0.950   .     S
C880   C903    1.501   .     S
C880   C885    1.404   .     S
C881   C884    1.453   .     S
C882   C883    1.456   .     S
C882   C885    1.400   .     D
C885   H886    0.950   .     S
C887   C903    1.501   .     S
C887   C892    1.404   .     S
C888   C891    1.453   .     S
C889   C890    1.456   .     S
C889   C892    1.400   .     D
C892   H893    0.950   .     S
C894   C903    1.501   .     S
C894   C899    1.404   .     D
C895   C898    1.453   .     S
C896   C897    1.456   .     S
C896   C899    1.400   .     S
C899   H900    0.950   .     S
C901   H902    1.000   .     S
C903   H904    1.000   .     S
